                                   MODFLOW 6
                U.S. GEOLOGICAL SURVEY MODULAR HYDROLOGIC MODEL
                            VERSION 6.6.0 12/20/2024

   MODFLOW 6 compiled Dec 31 2024 17:10:16 with Intel(R) Fortran Intel(R) 64
   Compiler Classic for applications running on Intel(R) 64, Version 2021.7.0
                             Build 20220726_000000

This software has been approved for release by the U.S. Geological 
Survey (USGS). Although the software has been subjected to rigorous 
review, the USGS reserves the right to update the software as needed 
pursuant to further analysis and review. No warranty, expressed or 
implied, is made by the USGS or the U.S. Government as to the 
functionality of the software and related material nor shall the 
fact of release constitute any such warranty. Furthermore, the 
software is released on condition that neither the USGS nor the U.S. 
Government shall be held liable for any damages resulting from its 
authorized or unauthorized use. Also refer to the USGS Water 
Resources Software User Rights Notice for complete use, copyright, 
and distribution information.


As a work of the United States Government, this USGS product is 
in the public domain within the United States. You can copy, 
modify, distribute, and perform the work, even for commercial 
purposes, all without asking permission. Additionally, USGS 
waives copyright and related rights in the work worldwide 
through CC0 1.0 Universal Public Domain Dedication 
(https://creativecommons.org/publicdomain/zero/1.0/).

The following GNU Lesser General Public License (LGPL) libraries
are used in this USGS product:

    SPARSKIT version 2.0
      ilut, luson, and qsplit 
      (https://www-users.cse.umn.edu/~saad/software/SPARSKIT/)

    RCM - Reverse Cuthill McKee Ordering
      (https://people.math.sc.edu/Burkardt/f_src/rcm/rcm.html)

    BLAS - Basic Linear Algebra Subprograms Level 1
      (https://people.math.sc.edu/Burkardt/f_src/blas1_d/blas1_d.html)

    SPARSEKIT - Sparse Matrix Utility Package
      amux, dperm, dvperm, rperm, and cperm
      (https://people.sc.fsu.edu/~jburkardt/f77_src/sparsekit/sparsekit.html)

The following BSD-3 License libraries are used in this USGS product:

    Modern Fortran DAG Library
      Copyright (c) 2018, Jacob Williams
      All rights reserved.
      (https://github.com/jacobwilliams/daglib)

MODFLOW 6 compiler options: /O2 /heap-arrays:0 /fpe:0 /traceback /nologo /fpp
/c /module:win64\mod_mf6\ /object:win64\obj_mf6\

System command used to initiate simulation:
C:\Users\sebas\AppData\Local\flopy\bin\mf6.exe

MODFLOW was compiled using uniform precision.

Real Variables
  KIND: 8
  TINY (smallest non-zero value):    2.225074-308
  HUGE (largest value):    1.797693+308
  PRECISION: 15
  SIZE IN BITS: 64

Integer Variables
  KIND: 4
  HUGE (largest value): 2147483647
  SIZE IN BITS: 32

Long Integer Variables
  KIND: 8
  HUGE (largest value): 9223372036854775807
  SIZE IN BITS: 64

Logical Variables
  KIND: 4
  SIZE IN BITS: 32
 

 OPENED mfsim.nam
 FILE TYPE:NAM6               UNIT 1001   STATUS:OLD                 
 FORMAT:FORMATTED              ACCESS:SEQUENTIAL          
 ACTION:READ                

 # File generated by Flopy version 3.9.1 on 02/11/2026 at 07:58:34.

 OPENED DISU_model.tdis
 FILE TYPE:TDIS6              UNIT 1002   STATUS:OLD                 
 FORMAT:FORMATTED              ACCESS:SEQUENTIAL          
 ACTION:READ                

 # File generated by Flopy version 3.9.1 on 02/11/2026 at 07:58:34.

 OPENED DISU_model.nam
 FILE TYPE:GWF6               UNIT 1003   STATUS:OLD                 
 FORMAT:FORMATTED              ACCESS:SEQUENTIAL          
 ACTION:READ                

 # File generated by Flopy version 3.9.1 on 02/11/2026 at 07:58:34.

 OPENED DISU_model.disu
 FILE TYPE:DISU6              UNIT 1004   STATUS:OLD                 
 FORMAT:FORMATTED              ACCESS:SEQUENTIAL          
 ACTION:READ                

 # File generated by Flopy version 3.9.1 on 02/11/2026 at 07:58:34.

 OPENED DISU_model.npf
 FILE TYPE:NPF6               UNIT 1005   STATUS:OLD                 
 FORMAT:FORMATTED              ACCESS:SEQUENTIAL          
 ACTION:READ                

 # File generated by Flopy version 3.9.1 on 02/11/2026 at 07:58:47.

 OPENED DISU_model.ic
 FILE TYPE:IC6                UNIT 1006   STATUS:OLD                 
 FORMAT:FORMATTED              ACCESS:SEQUENTIAL          
 ACTION:READ                

 # File generated by Flopy version 3.9.1 on 02/11/2026 at 07:58:46.

 OPENED DISU_model.oc
 FILE TYPE:OC6       UNIT 1007   STATUS:OLD                 
 FORMAT:FORMATTED              ACCESS:SEQUENTIAL          
 ACTION:READ                


 OPENED DISU_model.wel
 FILE TYPE:WEL6               UNIT 1008   STATUS:OLD                 
 FORMAT:FORMATTED              ACCESS:SEQUENTIAL          
 ACTION:READ                

 # File generated by Flopy version 3.9.1 on 02/11/2026 at 07:58:47.

 OPENED quadtree_caseC.rch
 FILE TYPE:RCH6               UNIT 1010   STATUS:OLD                 
 FORMAT:FORMATTED              ACCESS:SEQUENTIAL          
 ACTION:READ                

 # File generated by Flopy version 3.9.1 on 02/11/2026 at 07:58:47.

 OPENED DISU_model.evt
 FILE TYPE:EVT6               UNIT 1012   STATUS:OLD                 
 FORMAT:FORMATTED              ACCESS:SEQUENTIAL          
 ACTION:READ                

 # File generated by Flopy version 3.9.1 on 02/11/2026 at 07:58:47.

 OPENED DISU_model.chd
 FILE TYPE:CHD6               UNIT 1013   STATUS:OLD                 
 FORMAT:FORMATTED              ACCESS:SEQUENTIAL          
 ACTION:READ                

 # File generated by Flopy version 3.9.1 on 02/11/2026 at 07:58:47.

 READING SIMULATION OPTIONS
    MAXIMUM NUMBER OF ERRORS THAT WILL BE STORED IS 1000
 END OF SIMULATION OPTIONS

 READING SIMULATION TIMING

 TDIS -- TEMPORAL DISCRETIZATION PACKAGE,
 VERSION 1 : 11/13/2014 - INPUT READ FROM MEMPATH: __INPUT__/SIM/TDIS                                
 PROCESSING TDIS OPTIONS
    SIMULATION TIME UNIT IS SECONDS
 END OF TDIS OPTIONS
 PROCESSING TDIS DIMENSIONS
    1 STRESS PERIOD(S) IN SIMULATION
 END OF TDIS DIMENSIONS
 PROCESSING TDIS PERIODDATA


 STRESS PERIOD     LENGTH       TIME STEPS     MULTIPLIER FOR DELT
 ----------------------------------------------------------------------------
        1         1.000000          1                    1.000
 END OF TDIS PERIODDATA
 END OF SIMULATION TIMING

 READING SIMULATION MODELS
    GWF6 model 1 will be created
 END OF SIMULATION MODELS

 READING SIMULATION EXCHANGES
 END OF SIMULATION EXCHANGES

 READING SOLUTIONGROUP

 Creating solution: SLN_1           

 OPENED DISU_model.ims
 FILE TYPE:IMS   UNIT 1015   STATUS:OLD                 
 FORMAT:FORMATTED              ACCESS:SEQUENTIAL          
 ACTION:READ                

 END OF SOLUTIONGROUP

PROCESSING MODEL CONNECTIONS

 IMS -- ITERATIVE MODEL SOLUTION PACKAGE, VERSION 6, 4/28/2017
         INPUT READ FROM UNIT 1015
 # File generated by Flopy version 3.9.1 on 02/11/2026 at 07:58:34.

 PROCESSING IMS OPTIONS
 COMPLEX OPTION:
 DEFAULT SOLVER INPUT VALUES REFLECT STRONGLY NONLINEAR MODEL
 END OF IMS OPTIONS

 PROCESSING IMS NONLINEAR
 END OF IMS NONLINEAR DATA
 **UNDER-RELAXATION WILL BE USED***
 

 PROCESSING LINEAR DATA
 END OF LINEAR DATA
 ***IMS LINEAR SOLVER WILL BE USED***

 IMSLINEAR -- UNSTRUCTURED LINEAR SOLUTION PACKAGE, VERSION 8, 04/28/2017
 An asymmetric matrix will be solved

 OUTER ITERATION CONVERGENCE CRITERION    (DVCLOSE) =    0.100000E-02
 MAXIMUM NUMBER OF OUTER ITERATIONS        (MXITER) = 300
 SOLVER PRINTOUT INDEX                     (IPRIMS) = 1
 NONLINEAR ITERATION METHOD            (NONLINMETH) = 3
 LINEAR SOLUTION METHOD                   (LINMETH) = 1
 UNDER-RELAXATION WEIGHT REDUCTION FACTOR   (THETA) =    0.800000E+00
 UNDER-RELAXATION WEIGHT INCREASE INCREMENT (KAPPA) =    0.100000E-03
 UNDER-RELAXATION PREVIOUS HISTORY FACTOR   (GAMMA) =    0.000000E+00
 UNDER-RELAXATION MOMENTUM TERM         (AMOMENTUM) =    0.000000E+00
 MAXIMUM NUMBER OF BACKTRACKS            (NUMTRACK) = 20
 BACKTRACKING TOLERANCE FACTOR               (BTOL) =    0.105000E+01
 BACKTRACKING REDUCTION FACTOR             (BREDUC) =    0.100000E+00
 BACKTRACKING RESIDUAL LIMIT              (RES_LIM) =    0.200000E-02

       SOLUTION BY THE BICONJUGATE-GRADIENT STABILIZED METHOD
 ------------------------------------------------------------------
 MAXIMUM OF 300 CALLS OF SOLUTION ROUTINE
 MAXIMUM OF 1200 INTERNAL ITERATIONS PER CALL TO SOLUTION ROUTINE
 LINEAR ACCELERATION METHOD            = BCGS      
 MATRIX PRECONDITIONING TYPE           = MOD. INCOMPLETE LUT 
 MATRIX SCALING APPROACH               = NO SCALING          
 MATRIX REORDERING APPROACH            = ORIGINAL ORDERING        
 NUMBER OF ORTHOGONALIZATIONS          = 2
 HEAD CHANGE CRITERION FOR CLOSURE     =    0.10000E-05
 RESIDUAL CHANGE CRITERION FOR CLOSURE =    0.10000E+00
 RESIDUAL CONVERGENCE OPTION           = 0
 RESIDUAL CONVERGENCE NORM             = INFINITY NORM   
 RELAXATION FACTOR                     =    0.92000E+00
 NUMBER OF LEVELS                      =              5
 DROP TOLERANCE                        =    0.10000E-03


 
    Solving:  Stress period:     1    Time step:     1
 
1
 STRESS PERIOD NO. 1, LENGTH =   1.000000    
 ------------------------------------------
 NUMBER OF TIME STEPS = 1
 MULTIPLIER FOR DELT =     1.000
 INITIAL TIME STEP SIZE =   1.000000    

 SLN_1 OUTER ITERATION SUMMARY
 ----------------------------------------------------------------------------------------------------------------------------------------------------------------
                                OUTER      INNER  BACKTRACK  BACKTRACK        INCOMING        OUTGOING                    STEP   MAXIMUM CHANGE MODEL-(CELLID) OR
 OUTER ITERATION STEP       ITERATION  ITERATION       FLAG ITERATIONS        RESIDUAL        RESIDUAL  MAXIMUM CHANGE SUCCESS             MODEL-PACKAGE-(NUMBER)
 ----------------------------------------------------------------------------------------------------------------------------------------------------------------
 Backtracking                       1                     0          0       7176253.0       7176253.0                       *                                   
 Model                              1        120                                                             253.66421                              1_GWF-(44198)
 Backtracking                       2                     0          0       3.7252661       3.7252661                       *                                   
 Model                              2         78                                                           -0.38348212                              1_GWF-(58762)
 Backtracking                       3                     4          2       195.85597       4.1802067                                                           
 Model                              3         72                                                           -0.38060170                              1_GWF-(58762)
 Backtracking                       4                     4          2       194.29927       5.3359617                                                           
 Model                              4         73                                                           -0.37751801                              1_GWF-(58762)
 Backtracking                       5                     4          2       192.62655       6.8159823                                                           
 Model                              5         63                                                           -0.37485274                              1_GWF-(58762)
 Backtracking                       6                     4          2       191.25347       8.4305007                                                           
 Model                              6         86                                                           -0.37138407                              1_GWF-(58762)
 Backtracking                       7                     4          2       189.31536       10.092383                                                           
 Model                              7         69                                                           -0.36860683                              1_GWF-(58762)
 Backtracking                       8                     4          2       187.80836       11.768513                                                           
 Model                              8         68                                                           -0.36565359                              1_GWF-(58762)
 Backtracking                       9                     4          2       186.20933       13.439768                                                           
 Model                              9         82                                                           -0.36253546                              1_GWF-(58762)
 Backtracking                      10                     4          2       184.52006       15.095458                                                           
 Model                             10         74                                                           -0.35979211                              1_GWF-(58762)
 Backtracking                      11                     4          2       183.01809       16.731793                                                           
 Model                             11         75                                                           -0.35687318                              1_GWF-(58762)
 Backtracking                      12                     4          2       181.45584       18.344818                                                           
 Model                             12         74                                                           -0.35400931                              1_GWF-(58762)
 Backtracking                      13                     4          2       179.91307       19.932639                                                           
 Model                             13         83                                                           -0.35106989                              1_GWF-(58762)
 Backtracking                      14                     4          2       178.31841       21.493427                                                           
 Model                             14         81                                                           -0.34826944                              1_GWF-(58762)
 Backtracking                      15                     4          2       176.80136       23.027119                                                           
 Model                             15         73                                                           -0.34559481                              1_GWF-(58762)
 Backtracking                      16                     4          2       175.36106       24.533961                                                           
 Model                             16         70                                                           -0.34259291                              1_GWF-(58762)
 Backtracking                      17                     4          2       173.67726       26.011227                                                           
 Model                             17         68                                                           -0.34010152                              1_GWF-(58762)
 Backtracking                      18                     4          2       172.42523       27.463058                                                           
 Model                             18         74                                                           -0.33735390                              1_GWF-(58762)
 Backtracking                      19                     4          2       170.92300       28.886894                                                           
 Model                             19         80                                                           -0.33447054                              1_GWF-(58762)
 Backtracking                      20                     1          2       169.38423       30.282389                                                           
 Model                             20         68                                                           -0.33199551                              1_GWF-(58762)
 Backtracking                      21                     1          2       168.05872       31.651743                                                           
 Model                             21         72                                                           -0.32930231                              1_GWF-(58762)
 Backtracking                      22                     1          2       166.60413       32.993770                                                           
 Model                             22         79                                                           -0.32649462                              1_GWF-(58762)
 Backtracking                      23                     1          2       165.08443       34.307961                                                           
 Model                             23         78                                                           -0.32389324                              1_GWF-(58762)
 Backtracking                      24                     1          2       163.67915       35.595625                                                           
 Model                             24         75                                                           -0.32138540                              1_GWF-(58762)
 Backtracking                      25                     1          2       162.34017       36.857600                                                           
 Model                             25         74                                                           -0.31883475                              1_GWF-(58762)
 Backtracking                      26                     1          2       160.96240       38.093680                                                           
 Model                             26         71                                                           -0.31626296                              1_GWF-(58762)
 Backtracking                      27                     1          2       159.60551       39.304272                                                           
 Model                             27         75                                                           -0.31375115                              1_GWF-(58762)
 Backtracking                      28                     1          2       158.24438       40.489535                                                           
 Model                             28         65                                                           -0.31178959                              1_GWF-(58762)
 Backtracking                      29                     1          2       157.39968       41.654829                                                           
 Model                             29         73                                                           -0.30872496                              1_GWF-(58762)
 Backtracking                      30                     1          2       155.55307       42.790323                                                           
 Model                             30         74                                                           -0.30619422                              1_GWF-(58762)
 Backtracking                      31                     1          2       154.21215       43.901326                                                           
 Model                             31         79                                                           -0.30363548                              1_GWF-(58762)
 Backtracking                      32                     1          2       152.82943       44.987637                                                           
 Model                             32         68                                                           -0.30141810                              1_GWF-(58762)
 Backtracking                      33                     1          2       151.65244       46.051531                                                           
 Model                             33         66                                                           -0.29896754                              1_GWF-(58762)
 Backtracking                      34                     1          2       150.34675       47.091927                                                           
 Model                             34         67                                                           -0.29664179                              1_GWF-(58762)
 Backtracking                      35                     1          2       149.13208       48.109950                                                           
 Model                             35         69                                                           -0.29417637                              1_GWF-(58762)
 Backtracking                      36                     1          2       147.78350       49.104470                                                           
 Model                             36         72                                                           -0.29175860                              1_GWF-(58762)
 Backtracking                      37                     1          2       146.48782       50.076236                                                           
 Model                             37         73                                                           -0.28943014                              1_GWF-(58762)
 Backtracking                      38                     1          2       145.23779       51.025918                                                           
 Model                             38         77                                                           -0.28701678                              1_GWF-(58762)
 Backtracking                      39                     1          2       143.97460       51.953595                                                           
 Model                             39         72                                                           -0.28477213                              1_GWF-(58762)
 Backtracking                      40                     1          2       142.76179       52.859978                                                           
 Model                             40         68                                                           -0.28255038                              1_GWF-(58762)
 Backtracking                      41                     1          2       141.58670       53.745649                                                           
 Model                             41         72                                                           -0.28023037                              1_GWF-(58762)
 Backtracking                      42                     1          2       140.33933       54.610086                                                           
 Model                             42         68                                                           -0.27798736                              1_GWF-(58762)
 Backtracking                      43                     1          2       139.16006       55.454172                                                           
 Model                             43         76                                                           -0.27565312                              1_GWF-(58762)
 Backtracking                      44                     1          2       137.91029       56.277401                                                           
 Model                             44         71                                                           -0.27350607                              1_GWF-(58762)
 Backtracking                      45                     1          2       136.76282       57.080998                                                           
 Model                             45         77                                                           -0.27123007                              1_GWF-(58762)
 Backtracking                      46                     1          2       135.56385       57.864638                                                           
 Model                             46         66                                                           -0.26916302                              1_GWF-(58762)
 Backtracking                      47                     1          2       134.47242       58.629591                                                           
 Model                             47         74                                                           -0.26689003                              1_GWF-(58762)
 Backtracking                      48                     1          2       133.25680       59.374798                                                           
 Model                             48         81                                                           -0.26468334                              1_GWF-(58762)
 Backtracking                      49                     1          2       132.07270       60.100768                                                           
 Model                             49         75                                                           -0.26261210                              1_GWF-(58762)
 Backtracking                      50                     1          2       130.98391       60.808642                                                           
 Model                             50         80                                                           -0.26037234                              1_GWF-(58762)
 Backtracking                      51                     1          2       129.79887       61.497636                                                           
 Model                             51         76                                                           -0.25839042                              1_GWF-(58762)
 Backtracking                      52                     1          2       128.76205       62.169415                                                           
 Model                             52         83                                                           -0.25622880                              1_GWF-(58762)
 Backtracking                      53                     1          2       127.60913       62.822991                                                           
 Model                             53         85                                                           -0.25416916                              1_GWF-(58762)
 Backtracking                      54                     1          2       126.51669       63.459146                                                           
 Model                             54         86                                                           -0.25211759                              1_GWF-(58762)
 Backtracking                      55                     1          2       125.43030       64.078112                                                           
 Model                             55         72                                                           -0.25016121                              1_GWF-(58762)
 Backtracking                      56                     1          2       124.39081       64.680528                                                           
 Model                             56         68                                                           -0.24824811                              1_GWF-(58762)
 Backtracking                      57                     1          2       123.38564       65.266901                                                           
 Model                             57         97                                                           -0.24601564                              1_GWF-(58762)
 Backtracking                      58                     1          2       122.20609       65.835646                                                           
 Model                             58         76                                                           -0.24414287                              1_GWF-(58762)
 Backtracking                      59                     1          2       121.21405       66.388812                                                           
 Model                             59         78                                                           -0.24215112                              1_GWF-(58762)
 Backtracking                      60                     1          2       120.15920       66.925925                                                           
 Model                             60         66                                                           -0.24036251                              1_GWF-(58762)
 Backtracking                      61                     1          2       119.23571       67.448457                                                           
 Model                             61         71                                                           -0.23835729                              1_GWF-(58762)
 Backtracking                      62                     1          2       118.15607       67.954992                                                           
 Model                             62         77                                                           -0.23641187                              1_GWF-(58762)
 Backtracking                      63                     1          2       117.14133       68.446338                                                           
 Model                             63         69                                                           -0.23451189                              1_GWF-(58762)
 Backtracking                      64                     1          2       116.13935       68.922771                                                           
 Model                             64         74                                                           -0.23258612                              1_GWF-(58762)
 Backtracking                      65                     1          2       115.11950       69.384263                                                           
 Model                             65         95                                                           -0.23057467                              1_GWF-(58762)
 Backtracking                      66                     1          2       114.06673       69.830632                                                           
 Model                             66         71                                                           -0.22890870                              1_GWF-(58762)
 Backtracking                      67                     1          2       113.17971       70.263685                                                           
 Model                             67         82                                                           -0.22694415                              1_GWF-(58762)
 Backtracking                      68                     1          2       112.14421       70.682070                                                           
 Model                             68         79                                                           -0.22508053                              1_GWF-(58762)
 Backtracking                      69                     1          2       111.16864       71.086532                                                           
 Model                             69         73                                                           -0.22335326                              1_GWF-(58762)
 Backtracking                      70                     1          2       110.26252       71.477905                                                           
 Model                             70         80                                                           -0.22150943                              1_GWF-(58762)
 Backtracking                      71                     1          2       109.29380       71.855691                                                           
 Model                             71         68                                                           -0.21980105                              1_GWF-(58762)
 Backtracking                      72                     1          2       108.40423       72.220818                                                           
 Model                             72         66                                                           -0.21808299                              1_GWF-(58762)
 Backtracking                      73                     1          1       107.51746       75.747476                                                           
 Model                             73         71                                                           -0.20037203                              1_GWF-(58762)
 Backtracking                      74                     1          1       98.723298       78.042989                                                           
 Model                             74         75                                                           -0.18419079                              1_GWF-(58762)
 Backtracking                      75                     1          1       90.688353       79.306056                                                           
 Model                             75         81                                                           -0.16923486                              1_GWF-(58762)
 Backtracking                      76                     1          1       83.285788       79.702958                                                           
 Model                             76         70                                                           -0.15562688                              1_GWF-(58762)
 Backtracking                      77                     0          0       76.561605       76.561605                       *                                   
 Model                             77         65                                                       -2.97965935E-02                              1_GWF-(58762)
 Backtracking                      78                     0          0       14.741809       14.741809                       *                                   
 Model                             78         48                                                       -5.58110371E-03                              1_GWF-(58762)
 Backtracking                      79                     0          0       2.8434861       2.8434861                       *                                   
 Model                             79         48                                                       -1.20755394E-03                              1_GWF-(58762)
 Backtracking                      80                     0          0      0.43701012      0.43701012                       *                                   
 Model                             80         10                                                       -5.20919001E-05       *                      1_GWF-(56130)
 ----------------------------------------------------------------------------------------------------------------------------------------------------------------


 80 CALLS TO NUMERICAL SOLUTION IN TIME STEP 1 STRESS PERIOD 1
 5878 TOTAL ITERATIONS

 MEMORY MANAGER TOTAL STORAGE BY DATA TYPE, IN MEGABYTES
 -------------------------------
                    ALLOCATED   
 DATA TYPE           MEMORY     
 -------------------------------
 Character        1.04880000E-02
 Logical          4.80000000E-05
 Integer          27.969996     
 Real             67.652016     
 -------------------------------
 Total            95.632548     
 Virtual          0.0000000     
 -------------------------------


 
 Run end date and time (yyyy/mm/dd hh:mm:ss): 2026/02/11  7:59:12
 Elapsed run time: 23.935 Seconds
 Normal termination of simulation.
