                                   MODFLOW 6
                U.S. GEOLOGICAL SURVEY MODULAR HYDROLOGIC MODEL
                            VERSION 6.6.0 12/20/2024

   MODFLOW 6 compiled Dec 31 2024 17:10:16 with Intel(R) Fortran Intel(R) 64
   Compiler Classic for applications running on Intel(R) 64, Version 2021.7.0
                             Build 20220726_000000

This software has been approved for release by the U.S. Geological 
Survey (USGS). Although the software has been subjected to rigorous 
review, the USGS reserves the right to update the software as needed 
pursuant to further analysis and review. No warranty, expressed or 
implied, is made by the USGS or the U.S. Government as to the 
functionality of the software and related material nor shall the 
fact of release constitute any such warranty. Furthermore, the 
software is released on condition that neither the USGS nor the U.S. 
Government shall be held liable for any damages resulting from its 
authorized or unauthorized use. Also refer to the USGS Water 
Resources Software User Rights Notice for complete use, copyright, 
and distribution information.


As a work of the United States Government, this USGS product is 
in the public domain within the United States. You can copy, 
modify, distribute, and perform the work, even for commercial 
purposes, all without asking permission. Additionally, USGS 
waives copyright and related rights in the work worldwide 
through CC0 1.0 Universal Public Domain Dedication 
(https://creativecommons.org/publicdomain/zero/1.0/).

The following GNU Lesser General Public License (LGPL) libraries
are used in this USGS product:

    SPARSKIT version 2.0
      ilut, luson, and qsplit 
      (https://www-users.cse.umn.edu/~saad/software/SPARSKIT/)

    RCM - Reverse Cuthill McKee Ordering
      (https://people.math.sc.edu/Burkardt/f_src/rcm/rcm.html)

    BLAS - Basic Linear Algebra Subprograms Level 1
      (https://people.math.sc.edu/Burkardt/f_src/blas1_d/blas1_d.html)

    SPARSEKIT - Sparse Matrix Utility Package
      amux, dperm, dvperm, rperm, and cperm
      (https://people.sc.fsu.edu/~jburkardt/f77_src/sparsekit/sparsekit.html)

The following BSD-3 License libraries are used in this USGS product:

    Modern Fortran DAG Library
      Copyright (c) 2018, Jacob Williams
      All rights reserved.
      (https://github.com/jacobwilliams/daglib)

MODFLOW 6 compiler options: /O2 /heap-arrays:0 /fpe:0 /traceback /nologo /fpp
/c /module:win64\mod_mf6\ /object:win64\obj_mf6\

System command used to initiate simulation:
C:\Users\sebas\AppData\Local\flopy\bin\mf6.exe

MODFLOW was compiled using uniform precision.

Real Variables
  KIND: 8
  TINY (smallest non-zero value):    2.225074-308
  HUGE (largest value):    1.797693+308
  PRECISION: 15
  SIZE IN BITS: 64

Integer Variables
  KIND: 4
  HUGE (largest value): 2147483647
  SIZE IN BITS: 32

Long Integer Variables
  KIND: 8
  HUGE (largest value): 9223372036854775807
  SIZE IN BITS: 64

Logical Variables
  KIND: 4
  SIZE IN BITS: 32
 

 OPENED mfsim.nam
 FILE TYPE:NAM6               UNIT 1001   STATUS:OLD                 
 FORMAT:FORMATTED              ACCESS:SEQUENTIAL          
 ACTION:READ                

 # File generated by Flopy version 3.9.1 on 04/12/2026 at 01:12:04.

 OPENED DISU_model.tdis
 FILE TYPE:TDIS6              UNIT 1002   STATUS:OLD                 
 FORMAT:FORMATTED              ACCESS:SEQUENTIAL          
 ACTION:READ                

 # File generated by Flopy version 3.9.1 on 04/12/2026 at 01:12:04.

 OPENED DISU_model.nam
 FILE TYPE:GWF6               UNIT 1003   STATUS:OLD                 
 FORMAT:FORMATTED              ACCESS:SEQUENTIAL          
 ACTION:READ                

 # File generated by Flopy version 3.9.1 on 04/12/2026 at 01:12:04.

 OPENED DISU_model.disu
 FILE TYPE:DISU6              UNIT 1004   STATUS:OLD                 
 FORMAT:FORMATTED              ACCESS:SEQUENTIAL          
 ACTION:READ                

 # File generated by Flopy version 3.9.1 on 04/12/2026 at 01:12:04.

 OPENED DISU_model.npf
 FILE TYPE:NPF6               UNIT 1005   STATUS:OLD                 
 FORMAT:FORMATTED              ACCESS:SEQUENTIAL          
 ACTION:READ                

 # File generated by Flopy version 3.9.1 on 04/12/2026 at 01:12:54.

 OPENED DISU_model.ic
 FILE TYPE:IC6                UNIT 1006   STATUS:OLD                 
 FORMAT:FORMATTED              ACCESS:SEQUENTIAL          
 ACTION:READ                

 # File generated by Flopy version 3.9.1 on 04/12/2026 at 01:12:53.

 OPENED DISU_model.oc
 FILE TYPE:OC6       UNIT 1007   STATUS:OLD                 
 FORMAT:FORMATTED              ACCESS:SEQUENTIAL          
 ACTION:READ                


 OPENED DISU_model.wel
 FILE TYPE:WEL6               UNIT 1008   STATUS:OLD                 
 FORMAT:FORMATTED              ACCESS:SEQUENTIAL          
 ACTION:READ                

 # File generated by Flopy version 3.9.1 on 04/12/2026 at 01:12:56.

 OPENED quadtree_caseC.rch
 FILE TYPE:RCH6               UNIT 1010   STATUS:OLD                 
 FORMAT:FORMATTED              ACCESS:SEQUENTIAL          
 ACTION:READ                

 # File generated by Flopy version 3.9.1 on 04/12/2026 at 01:12:57.

 OPENED DISU_model.evt
 FILE TYPE:EVT6               UNIT 1012   STATUS:OLD                 
 FORMAT:FORMATTED              ACCESS:SEQUENTIAL          
 ACTION:READ                

 # File generated by Flopy version 3.9.1 on 04/12/2026 at 01:12:57.

 OPENED DISU_model.chd
 FILE TYPE:CHD6               UNIT 1013   STATUS:OLD                 
 FORMAT:FORMATTED              ACCESS:SEQUENTIAL          
 ACTION:READ                

 # File generated by Flopy version 3.9.1 on 04/12/2026 at 01:12:54.

 READING SIMULATION OPTIONS
    MAXIMUM NUMBER OF ERRORS THAT WILL BE STORED IS 1000
 END OF SIMULATION OPTIONS

 READING SIMULATION TIMING

 TDIS -- TEMPORAL DISCRETIZATION PACKAGE,
 VERSION 1 : 11/13/2014 - INPUT READ FROM MEMPATH: __INPUT__/SIM/TDIS                                
 PROCESSING TDIS OPTIONS
    SIMULATION TIME UNIT IS SECONDS
 END OF TDIS OPTIONS
 PROCESSING TDIS DIMENSIONS
    1 STRESS PERIOD(S) IN SIMULATION
 END OF TDIS DIMENSIONS
 PROCESSING TDIS PERIODDATA


 STRESS PERIOD     LENGTH       TIME STEPS     MULTIPLIER FOR DELT
 ----------------------------------------------------------------------------
        1         1.000000          1                    1.000
 END OF TDIS PERIODDATA
 END OF SIMULATION TIMING

 READING SIMULATION MODELS
    GWF6 model 1 will be created
 END OF SIMULATION MODELS

 READING SIMULATION EXCHANGES
 END OF SIMULATION EXCHANGES

 READING SOLUTIONGROUP

 Creating solution: SLN_1           

 OPENED DISU_model.ims
 FILE TYPE:IMS   UNIT 1015   STATUS:OLD                 
 FORMAT:FORMATTED              ACCESS:SEQUENTIAL          
 ACTION:READ                

 END OF SOLUTIONGROUP

PROCESSING MODEL CONNECTIONS

 IMS -- ITERATIVE MODEL SOLUTION PACKAGE, VERSION 6, 4/28/2017
         INPUT READ FROM UNIT 1015
 # File generated by Flopy version 3.9.1 on 04/12/2026 at 01:12:04.

 PROCESSING IMS OPTIONS
 COMPLEX OPTION:
 DEFAULT SOLVER INPUT VALUES REFLECT STRONGLY NONLINEAR MODEL
 END OF IMS OPTIONS

 PROCESSING IMS NONLINEAR
 END OF IMS NONLINEAR DATA
 **UNDER-RELAXATION WILL BE USED***
 

 PROCESSING LINEAR DATA
 END OF LINEAR DATA
 ***IMS LINEAR SOLVER WILL BE USED***

 IMSLINEAR -- UNSTRUCTURED LINEAR SOLUTION PACKAGE, VERSION 8, 04/28/2017
 An asymmetric matrix will be solved

 OUTER ITERATION CONVERGENCE CRITERION    (DVCLOSE) =    0.100000E-02
 MAXIMUM NUMBER OF OUTER ITERATIONS        (MXITER) = 300
 SOLVER PRINTOUT INDEX                     (IPRIMS) = 1
 NONLINEAR ITERATION METHOD            (NONLINMETH) = 3
 LINEAR SOLUTION METHOD                   (LINMETH) = 1
 UNDER-RELAXATION WEIGHT REDUCTION FACTOR   (THETA) =    0.800000E+00
 UNDER-RELAXATION WEIGHT INCREASE INCREMENT (KAPPA) =    0.100000E-03
 UNDER-RELAXATION PREVIOUS HISTORY FACTOR   (GAMMA) =    0.000000E+00
 UNDER-RELAXATION MOMENTUM TERM         (AMOMENTUM) =    0.000000E+00
 MAXIMUM NUMBER OF BACKTRACKS            (NUMTRACK) = 20
 BACKTRACKING TOLERANCE FACTOR               (BTOL) =    0.105000E+01
 BACKTRACKING REDUCTION FACTOR             (BREDUC) =    0.100000E+00
 BACKTRACKING RESIDUAL LIMIT              (RES_LIM) =    0.200000E-02

       SOLUTION BY THE BICONJUGATE-GRADIENT STABILIZED METHOD
 ------------------------------------------------------------------
 MAXIMUM OF 300 CALLS OF SOLUTION ROUTINE
 MAXIMUM OF 1200 INTERNAL ITERATIONS PER CALL TO SOLUTION ROUTINE
 LINEAR ACCELERATION METHOD            = BCGS      
 MATRIX PRECONDITIONING TYPE           = MOD. INCOMPLETE LUT 
 MATRIX SCALING APPROACH               = NO SCALING          
 MATRIX REORDERING APPROACH            = ORIGINAL ORDERING        
 NUMBER OF ORTHOGONALIZATIONS          = 2
 HEAD CHANGE CRITERION FOR CLOSURE     =    0.10000E-05
 RESIDUAL CHANGE CRITERION FOR CLOSURE =    0.10000E+00
 RESIDUAL CONVERGENCE OPTION           = 0
 RESIDUAL CONVERGENCE NORM             = INFINITY NORM   
 RELAXATION FACTOR                     =    0.92000E+00
 NUMBER OF LEVELS                      =              5
 DROP TOLERANCE                        =    0.10000E-03


 
    Solving:  Stress period:     1    Time step:     1
 
1
 STRESS PERIOD NO. 1, LENGTH =   1.000000    
 ------------------------------------------
 NUMBER OF TIME STEPS = 1
 MULTIPLIER FOR DELT =     1.000
 INITIAL TIME STEP SIZE =   1.000000    

 SLN_1 OUTER ITERATION SUMMARY
 ----------------------------------------------------------------------------------------------------------------------------------------------------------------
                                OUTER      INNER  BACKTRACK  BACKTRACK        INCOMING        OUTGOING                    STEP   MAXIMUM CHANGE MODEL-(CELLID) OR
 OUTER ITERATION STEP       ITERATION  ITERATION       FLAG ITERATIONS        RESIDUAL        RESIDUAL  MAXIMUM CHANGE SUCCESS             MODEL-PACKAGE-(NUMBER)
 ----------------------------------------------------------------------------------------------------------------------------------------------------------------
 Backtracking                       1                     0          0       1581121.2       1581121.2                       *                                   
 Model                              1        210                                                             255.33812                             1_GWF-(276106)
 Backtracking                       2                     0          0  7.60518102E-02  7.60518102E-02                       *                                   
 Model                              2         96                                                           -0.19144665                             1_GWF-(284535)
 Backtracking                       3                     4          2       10.520504      0.12790987                                                           
 Model                              3        115                                                           -0.19145030                             1_GWF-(284535)
 Backtracking                       4                     4          2       11.047287      0.22541858                                                           
 Model                              4        134                                                           -0.18979416                             1_GWF-(284535)
 Backtracking                       5                     4          2       10.928220      0.32827387                                                           
 Model                              5        121                                                           -0.18822082                             1_GWF-(284535)
 Backtracking                       6                     4          2       10.833760      0.43122882                                                           
 Model                              6        125                                                           -0.18661748                             1_GWF-(284535)
 Backtracking                       7                     4          2       10.732533      0.53298047                                                           
 Model                              7         97                                                           -0.18000354                             1_GWF-(284535)
 Backtracking                       8                     4          2       10.026248      0.62706393                                                           
 Model                              8        121                                                           -0.18381406                             1_GWF-(284535)
 Backtracking                       9                     4          2       10.567309      0.72587121                                                           
 Model                              9        123                                                           -0.18233515                             1_GWF-(284535)
 Backtracking                      10                     4          2       10.476675      0.82293841                                                           
 Model                             10        125                                                           -0.18083009                             1_GWF-(284535)
 Backtracking                      11                     4          2       10.384953      0.91821895                                                           
 Model                             11        111                                                           -0.17791352                             1_GWF-(284535)
 Backtracking                      12                     4          2       10.128387       1.0100457                                                           
 Model                             12        122                                                           -0.17805197                             1_GWF-(284535)
 Backtracking                      13                     4          2       10.217838       1.1019073                                                           
 Model                             13        109                                                           -0.17515684                             1_GWF-(284535)
 Backtracking                      14                     4          2       9.9626208       1.1903312                                                           
 Model                             14        126                                                           -0.17524722                             1_GWF-(284535)
 Backtracking                      15                     4          2       10.047307       1.2787512                                                           
 Model                             15        122                                                           -0.17370773                             1_GWF-(284535)
 Backtracking                      16                     4          2       9.9501644       1.3653364                                                           
 Model                             16        129                                                           -0.17239965                             1_GWF-(284535)
 Backtracking                      17                     4          2       9.8731432       1.4503058                                                           
 Model                             17        127                                                           -0.17093881                             1_GWF-(284535)
 Backtracking                      18                     4          2       9.7820663       1.5335276                                                           
 Model                             18        109                                                           -0.16811247                             1_GWF-(284535)
 Backtracking                      19                     4          2       9.5434174       1.6135277                                                           
 Model                             19        120                                                           -0.16824331                             1_GWF-(284535)
 Backtracking                      20                     1          2       9.6200246       1.6935171                                                           
 Model                             20        110                                                           -0.16558031                             1_GWF-(284535)
 Backtracking                      21                     1          2       9.3895945       1.7704076                                                           
 Model                             21        124                                                           -0.16563307                             1_GWF-(284535)
 Backtracking                      22                     1          2       9.4637020       1.8472830                                                           
 Model                             22        112                                                           -0.16344642                             1_GWF-(284535)
 Backtracking                      23                     1          2       9.2416622       1.9211716                                                           
 Model                             23        127                                                           -0.16294169                             1_GWF-(284535)
 Backtracking                      24                     1          2       9.3006897       1.9949201                                                           
 Model                             24        120                                                           -0.16149160                             1_GWF-(284535)
 Backtracking                      25                     1          2       9.2042275       2.0669712                                                           
 Model                             25        124                                                           -0.16040664                             1_GWF-(284535)
 Backtracking                      26                     1          2       9.1477981       2.1377411                                                           
 Model                             26        123                                                           -0.15917100                             1_GWF-(284535)
 Backtracking                      27                     1          2       9.0752917       2.2070805                                                           
 Model                             27        120                                                           -0.15780462                             1_GWF-(284535)
 Backtracking                      28                     1          2       8.9896590       2.2748746                                                           
 Model                             28        125                                                           -0.15663216                             1_GWF-(284535)
 Backtracking                      29                     1          2       8.9208370       2.3413041                                                           
 Model                             29        124                                                           -0.15526726                             1_GWF-(284535)
 Backtracking                      30                     1          2       8.8357607       2.4062220                                                           
 Model                             30        123                                                           -0.15409057                             1_GWF-(284535)
 Backtracking                      31                     1          2       8.7677686       2.4698124                                                           
 Model                             31        115                                                           -0.15189365                             1_GWF-(284535)
 Backtracking                      32                     1          2       8.5721690       2.5308131                                                           
 Model                             32        125                                                           -0.15156243                             1_GWF-(284535)
 Backtracking                      33                     1          2       8.6123578       2.5916073                                                           
 Model                             33        124                                                           -0.15042674                             1_GWF-(284535)
 Backtracking                      34                     1          2       8.5470840       2.6511417                                                           
 Model                             34        120                                                           -0.14926515                             1_GWF-(284535)
 Backtracking                      35                     1          2       8.4819863       2.7094313                                                           
 Model                             35        124                                                           -0.14794859                             1_GWF-(284535)
 Backtracking                      36                     1          2       8.3944624       2.7662646                                                           
 Model                             36        157                                                           -0.14700570                             1_GWF-(284535)
 Backtracking                      37                     1          2       8.3487307       2.8220715                                                           
 Model                             37        124                                                           -0.14559601                             1_GWF-(284535)
 Backtracking                      38                     1          2       8.2532918       2.8763690                                                           
 Model                             38        100                                                           -0.14258695                             1_GWF-(284535)
 Backtracking                      39                     1          2       7.9769775       2.9273483                                                           
 Model                             39        109                                                           -0.14228782                             1_GWF-(284535)
 Backtracking                      40                     1          2       7.9991282       2.9780520                                                           
 Model                             40        109                                                           -0.14144620                             1_GWF-(284535)
 Backtracking                      41                     1          2       7.9455183       3.0277124                                                           
 Model                             41        123                                                           -0.14104535                             1_GWF-(284535)
 Backtracking                      42                     1          2       7.9825785       3.0772489                                                           
 Model                             42        120                                                           -0.13985476                             1_GWF-(284535)
 Backtracking                      43                     1          2       7.9102009       3.1255672                                                           
 Model                             43        122                                                           -0.13875277                             1_GWF-(284535)
 Backtracking                      44                     1          2       7.8441504       3.1727425                                                           
 Model                             44        128                                                           -0.13770523                             1_GWF-(284535)
 Backtracking                      45                     1          2       7.7827662       3.2188316                                                           
 Model                             45        112                                                           -0.13554809                             1_GWF-(284535)
 Backtracking                      46                     1          2       7.5990225       3.2626221                                                           
 Model                             46        110                                                           -0.13484282                             1_GWF-(284535)
 Backtracking                      47                     1          2       7.5546689       3.3055296                                                           
 Model                             47        122                                                           -0.13436497                             1_GWF-(284535)
 Backtracking                      48                     1          2       7.5821908       3.3482876                                                           
 Model                             48        110                                                           -0.13211684                             1_GWF-(284535)
 Backtracking                      49                     1          2       7.3932787       3.3887199                                                           
 Model                             49        108                                                           -0.13142928                             1_GWF-(284535)
 Backtracking                      50                     1          2       7.3536891       3.4283609                                                           
 Model                             50         93                                                           -0.12718318                             1_GWF-(284535)
 Backtracking                      51                     1          2       6.8615771       3.4625964                                                           
 Model                             51        122                                                           -0.13014553                             1_GWF-(284535)
 Backtracking                      52                     1          2       7.3327966       3.5012900                                                           
 Model                             52        123                                                           -0.12912718                             1_GWF-(284535)
 Backtracking                      53                     1          2       7.2730570       3.5389993                                                           
 Model                             53        105                                                           -0.12702749                             1_GWF-(284535)
 Backtracking                      54                     1          2       7.0981741       3.5745773                                                           
 Model                             54        122                                                           -0.12714198                             1_GWF-(284535)
 Backtracking                      55                     1          2       7.1591341       3.6104142                                                           
 Model                             55        109                                                           -0.12551591                             1_GWF-(284535)
 Backtracking                      56                     1          2       7.0003252       3.6443020                                                           
 Model                             56        119                                                           -0.12500452                             1_GWF-(284535)
 Backtracking                      57                     1          2       7.0273356       3.6781254                                                           
 Model                             57        123                                                           -0.12401498                             1_GWF-(284535)
 Backtracking                      58                     4          1       6.9677895       4.0070356                                                           
 Model                             58        121                                                           -0.11397716                             1_GWF-(284535)
 Backtracking                      59                     4          1       6.3988152       4.2461780                                                           
 Model                             59        122                                                           -0.10480027                             1_GWF-(284535)
 Backtracking                      60                     1          1       5.8816915       4.4097022                                                           
 Model                             60        102                                                       -9.58826022E-02                             1_GWF-(284535)
 Backtracking                      61                     1          1       5.3473077       4.5034424                                                           
 Model                             61        119                                                       -8.85667238E-02                             1_GWF-(284535)
 Backtracking                      62                     1          1       4.9660801       4.5496910                                                           
 Model                             62         94                                                       -7.83192903E-02                             1_GWF-(284535)
 Backtracking                      63                     0          0       4.2324228       4.2324228                       *                                   
 Model                             63        103                                                       -1.82954755E-02                             1_GWF-(284535)
 Backtracking                      64                     0          0       1.1728109       1.1728109                       *                                   
 Model                             64         27                                                       -1.88834968E-03                             1_GWF-(284535)
 Backtracking                      65                     0          0      0.24215442      0.24215442                       *                                   
 Model                             65         23                                                       -5.27289753E-04       *                     1_GWF-(284201)
 ----------------------------------------------------------------------------------------------------------------------------------------------------------------


 65 CALLS TO NUMERICAL SOLUTION IN TIME STEP 1 STRESS PERIOD 1
 7563 TOTAL ITERATIONS

 MEMORY MANAGER TOTAL STORAGE BY DATA TYPE, IN MEGABYTES
 -------------------------------
                    ALLOCATED   
 DATA TYPE           MEMORY     
 -------------------------------
 Character        1.04880000E-02
 Logical          4.80000000E-05
 Integer          130.47286     
 Real             318.56720     
 -------------------------------
 Total            449.05060     
 Virtual          0.0000000     
 -------------------------------


 
 Run end date and time (yyyy/mm/dd hh:mm:ss): 2026/04/12  1:15:09
 Elapsed run time:  2 Minutes,  6.319 Seconds
 Normal termination of simulation.
