                                   MODFLOW 6
                U.S. GEOLOGICAL SURVEY MODULAR HYDROLOGIC MODEL
                            VERSION 6.6.0 12/20/2024

   MODFLOW 6 compiled Dec 31 2024 17:10:16 with Intel(R) Fortran Intel(R) 64
   Compiler Classic for applications running on Intel(R) 64, Version 2021.7.0
                             Build 20220726_000000

This software has been approved for release by the U.S. Geological 
Survey (USGS). Although the software has been subjected to rigorous 
review, the USGS reserves the right to update the software as needed 
pursuant to further analysis and review. No warranty, expressed or 
implied, is made by the USGS or the U.S. Government as to the 
functionality of the software and related material nor shall the 
fact of release constitute any such warranty. Furthermore, the 
software is released on condition that neither the USGS nor the U.S. 
Government shall be held liable for any damages resulting from its 
authorized or unauthorized use. Also refer to the USGS Water 
Resources Software User Rights Notice for complete use, copyright, 
and distribution information.


As a work of the United States Government, this USGS product is 
in the public domain within the United States. You can copy, 
modify, distribute, and perform the work, even for commercial 
purposes, all without asking permission. Additionally, USGS 
waives copyright and related rights in the work worldwide 
through CC0 1.0 Universal Public Domain Dedication 
(https://creativecommons.org/publicdomain/zero/1.0/).

The following GNU Lesser General Public License (LGPL) libraries
are used in this USGS product:

    SPARSKIT version 2.0
      ilut, luson, and qsplit 
      (https://www-users.cse.umn.edu/~saad/software/SPARSKIT/)

    RCM - Reverse Cuthill McKee Ordering
      (https://people.math.sc.edu/Burkardt/f_src/rcm/rcm.html)

    BLAS - Basic Linear Algebra Subprograms Level 1
      (https://people.math.sc.edu/Burkardt/f_src/blas1_d/blas1_d.html)

    SPARSEKIT - Sparse Matrix Utility Package
      amux, dperm, dvperm, rperm, and cperm
      (https://people.sc.fsu.edu/~jburkardt/f77_src/sparsekit/sparsekit.html)

The following BSD-3 License libraries are used in this USGS product:

    Modern Fortran DAG Library
      Copyright (c) 2018, Jacob Williams
      All rights reserved.
      (https://github.com/jacobwilliams/daglib)

MODFLOW 6 compiler options: /O2 /heap-arrays:0 /fpe:0 /traceback /nologo /fpp
/c /module:win64\mod_mf6\ /object:win64\obj_mf6\

System command used to initiate simulation:
mf6

MODFLOW was compiled using uniform precision.

Real Variables
  KIND: 8
  TINY (smallest non-zero value):    2.225074-308
  HUGE (largest value):    1.797693+308
  PRECISION: 15
  SIZE IN BITS: 64

Integer Variables
  KIND: 4
  HUGE (largest value): 2147483647
  SIZE IN BITS: 32

Long Integer Variables
  KIND: 8
  HUGE (largest value): 9223372036854775807
  SIZE IN BITS: 64

Logical Variables
  KIND: 4
  SIZE IN BITS: 32
 

 OPENED mfsim.nam
 FILE TYPE:NAM6               UNIT 1001   STATUS:OLD                 
 FORMAT:FORMATTED              ACCESS:SEQUENTIAL          
 ACTION:READ                

 # File generated by Flopy version 3.9.1 on 02/12/2026 at 01:01:27.

 OPENED DISU_model.tdis
 FILE TYPE:TDIS6              UNIT 1002   STATUS:OLD                 
 FORMAT:FORMATTED              ACCESS:SEQUENTIAL          
 ACTION:READ                

 # File generated by Flopy version 3.9.1 on 02/12/2026 at 01:01:27.

 OPENED DISU_model.nam
 FILE TYPE:GWF6               UNIT 1003   STATUS:OLD                 
 FORMAT:FORMATTED              ACCESS:SEQUENTIAL          
 ACTION:READ                

 # File generated by Flopy version 3.9.1 on 02/12/2026 at 01:01:27.

 OPENED DISU_model.disu
 FILE TYPE:DISU6              UNIT 1004   STATUS:OLD                 
 FORMAT:FORMATTED              ACCESS:SEQUENTIAL          
 ACTION:READ                

 # File generated by Flopy version 3.9.1 on 02/12/2026 at 01:01:27.

 OPENED DISU_model.npf
 FILE TYPE:NPF6               UNIT 1005   STATUS:OLD                 
 FORMAT:FORMATTED              ACCESS:SEQUENTIAL          
 ACTION:READ                

 # File generated by Flopy version 3.9.1 on 02/12/2026 at 01:01:40.

 OPENED DISU_model.ic
 FILE TYPE:IC6                UNIT 1006   STATUS:OLD                 
 FORMAT:FORMATTED              ACCESS:SEQUENTIAL          
 ACTION:READ                

 # File generated by Flopy version 3.9.1 on 02/12/2026 at 01:01:39.

 OPENED DISU_model.oc
 FILE TYPE:OC6       UNIT 1007   STATUS:OLD                 
 FORMAT:FORMATTED              ACCESS:SEQUENTIAL          
 ACTION:READ                


 OPENED DISU_model.wel
 FILE TYPE:WEL6               UNIT 1008   STATUS:OLD                 
 FORMAT:FORMATTED              ACCESS:SEQUENTIAL          
 ACTION:READ                

 # File generated by Flopy version 3.9.1 on 02/12/2026 at 01:01:40.

 OPENED quadtree_caseD.rch
 FILE TYPE:RCH6               UNIT 1010   STATUS:OLD                 
 FORMAT:FORMATTED              ACCESS:SEQUENTIAL          
 ACTION:READ                

 # File generated by Flopy version 3.9.1 on 02/12/2026 at 01:01:40.

 OPENED DISU_model.evt
 FILE TYPE:EVT6               UNIT 1012   STATUS:OLD                 
 FORMAT:FORMATTED              ACCESS:SEQUENTIAL          
 ACTION:READ                

 # File generated by Flopy version 3.9.1 on 02/12/2026 at 01:01:40.

 OPENED DISU_model.chd
 FILE TYPE:CHD6               UNIT 1013   STATUS:OLD                 
 FORMAT:FORMATTED              ACCESS:SEQUENTIAL          
 ACTION:READ                

 # File generated by Flopy version 3.9.1 on 02/12/2026 at 01:01:40.

 READING SIMULATION OPTIONS
    MAXIMUM NUMBER OF ERRORS THAT WILL BE STORED IS 1000
 END OF SIMULATION OPTIONS

 READING SIMULATION TIMING

 TDIS -- TEMPORAL DISCRETIZATION PACKAGE,
 VERSION 1 : 11/13/2014 - INPUT READ FROM MEMPATH: __INPUT__/SIM/TDIS                                
 PROCESSING TDIS OPTIONS
    SIMULATION TIME UNIT IS SECONDS
 END OF TDIS OPTIONS
 PROCESSING TDIS DIMENSIONS
    1 STRESS PERIOD(S) IN SIMULATION
 END OF TDIS DIMENSIONS
 PROCESSING TDIS PERIODDATA


 STRESS PERIOD     LENGTH       TIME STEPS     MULTIPLIER FOR DELT
 ----------------------------------------------------------------------------
        1         1.000000          1                    1.000
 END OF TDIS PERIODDATA
 END OF SIMULATION TIMING

 READING SIMULATION MODELS
    GWF6 model 1 will be created
 END OF SIMULATION MODELS

 READING SIMULATION EXCHANGES
 END OF SIMULATION EXCHANGES

 READING SOLUTIONGROUP

 Creating solution: SLN_1           

 OPENED DISU_model.ims
 FILE TYPE:IMS   UNIT 1015   STATUS:OLD                 
 FORMAT:FORMATTED              ACCESS:SEQUENTIAL          
 ACTION:READ                

 END OF SOLUTIONGROUP

PROCESSING MODEL CONNECTIONS

 IMS -- ITERATIVE MODEL SOLUTION PACKAGE, VERSION 6, 4/28/2017
         INPUT READ FROM UNIT 1015
 # File generated by Flopy version 3.9.1 on 02/12/2026 at 01:01:27.

 PROCESSING IMS OPTIONS
 COMPLEX OPTION:
 DEFAULT SOLVER INPUT VALUES REFLECT STRONGLY NONLINEAR MODEL
 END OF IMS OPTIONS

 PROCESSING IMS NONLINEAR
 END OF IMS NONLINEAR DATA
 **UNDER-RELAXATION WILL BE USED***
 

 PROCESSING LINEAR DATA
 END OF LINEAR DATA
 ***IMS LINEAR SOLVER WILL BE USED***

 IMSLINEAR -- UNSTRUCTURED LINEAR SOLUTION PACKAGE, VERSION 8, 04/28/2017
 An asymmetric matrix will be solved

 OUTER ITERATION CONVERGENCE CRITERION    (DVCLOSE) =    0.100000E-02
 MAXIMUM NUMBER OF OUTER ITERATIONS        (MXITER) = 300
 SOLVER PRINTOUT INDEX                     (IPRIMS) = 1
 NONLINEAR ITERATION METHOD            (NONLINMETH) = 3
 LINEAR SOLUTION METHOD                   (LINMETH) = 1
 UNDER-RELAXATION WEIGHT REDUCTION FACTOR   (THETA) =    0.800000E+00
 UNDER-RELAXATION WEIGHT INCREASE INCREMENT (KAPPA) =    0.100000E-03
 UNDER-RELAXATION PREVIOUS HISTORY FACTOR   (GAMMA) =    0.000000E+00
 UNDER-RELAXATION MOMENTUM TERM         (AMOMENTUM) =    0.000000E+00
 MAXIMUM NUMBER OF BACKTRACKS            (NUMTRACK) = 20
 BACKTRACKING TOLERANCE FACTOR               (BTOL) =    0.105000E+01
 BACKTRACKING REDUCTION FACTOR             (BREDUC) =    0.100000E+00
 BACKTRACKING RESIDUAL LIMIT              (RES_LIM) =    0.200000E-02

       SOLUTION BY THE BICONJUGATE-GRADIENT STABILIZED METHOD
 ------------------------------------------------------------------
 MAXIMUM OF 300 CALLS OF SOLUTION ROUTINE
 MAXIMUM OF 1200 INTERNAL ITERATIONS PER CALL TO SOLUTION ROUTINE
 LINEAR ACCELERATION METHOD            = BCGS      
 MATRIX PRECONDITIONING TYPE           = MOD. INCOMPLETE LUT 
 MATRIX SCALING APPROACH               = NO SCALING          
 MATRIX REORDERING APPROACH            = ORIGINAL ORDERING        
 NUMBER OF ORTHOGONALIZATIONS          = 2
 HEAD CHANGE CRITERION FOR CLOSURE     =    0.10000E-05
 RESIDUAL CHANGE CRITERION FOR CLOSURE =    0.10000E+00
 RESIDUAL CONVERGENCE OPTION           = 0
 RESIDUAL CONVERGENCE NORM             = INFINITY NORM   
 RELAXATION FACTOR                     =    0.92000E+00
 NUMBER OF LEVELS                      =              5
 DROP TOLERANCE                        =    0.10000E-03


 
    Solving:  Stress period:     1    Time step:     1
 
1
 STRESS PERIOD NO. 1, LENGTH =   1.000000    
 ------------------------------------------
 NUMBER OF TIME STEPS = 1
 MULTIPLIER FOR DELT =     1.000
 INITIAL TIME STEP SIZE =   1.000000    

 SLN_1 OUTER ITERATION SUMMARY
 ----------------------------------------------------------------------------------------------------------------------------------------------------------------
                                OUTER      INNER  BACKTRACK  BACKTRACK        INCOMING        OUTGOING                    STEP   MAXIMUM CHANGE MODEL-(CELLID) OR
 OUTER ITERATION STEP       ITERATION  ITERATION       FLAG ITERATIONS        RESIDUAL        RESIDUAL  MAXIMUM CHANGE SUCCESS             MODEL-PACKAGE-(NUMBER)
 ----------------------------------------------------------------------------------------------------------------------------------------------------------------
 Backtracking                       1                     0          0       1719211.8       1719211.8                       *                                   
 Model                              1        147                                                             252.48730                              1_GWF-(69705)
 Backtracking                       2                     0          0      0.72523179      0.72523179                       *                                   
 Model                              2        101                                                            -1.8214164                              1_GWF-(84301)
 Backtracking                       3                     1          3       50.836118      0.72614637                                                           
 Model                              3        100                                                            -1.8199450                              1_GWF-(84301)
 Backtracking                       4                     1          3       50.770352      0.73059144                                                           
 Model                              4         93                                                            -1.8184562                              1_GWF-(84301)
 Backtracking                       5                     1          3       50.705940      0.73847954                                                           
 Model                              5         99                                                            -1.8170431                              1_GWF-(84301)
 Backtracking                       6                     1          3       50.637510      0.74967762                                                           
 Model                              6         81                                                            -1.8152333                              1_GWF-(84301)
 Backtracking                       7                     1          3       50.580695      0.76402039                                                           
 Model                              7         96                                                            -1.8140139                              1_GWF-(84301)
 Backtracking                       8                     1          3       50.507498      0.78130770                                                           
 Model                              8         92                                                            -1.8125774                              1_GWF-(84301)
 Backtracking                       9                     1          3       50.441391      0.80132890                                                           
 Model                              9         87                                                            -1.8111424                              1_GWF-(84301)
 Backtracking                      10                     1          3       50.374264      0.82386302                                                           
 Model                             10         91                                                            -1.8096659                              1_GWF-(84301)
 Backtracking                      11                     1          3       50.309052      0.84869025                                                           
 Model                             11        100                                                            -1.8083192                              1_GWF-(84301)
 Backtracking                      12                     1          3       50.243337      0.87559564                                                           
 Model                             12         93                                                            -1.8068345                              1_GWF-(84301)
 Backtracking                      13                     1          3       50.177616      0.90437470                                                           
 Model                             13         87                                                            -1.8053383                              1_GWF-(84301)
 Backtracking                      14                     1          3       50.113136      0.93483687                                                           
 Model                             14        104                                                            -1.8039847                              1_GWF-(84301)
 Backtracking                      15                     1          3       50.047192      0.96680458                                                           
 Model                             15         87                                                            -1.8024836                              1_GWF-(84301)
 Backtracking                      16                     1          3       49.982950       1.0001176                                                           
 Model                             16         90                                                            -1.8010317                              1_GWF-(84301)
 Backtracking                      17                     1          3       49.916898       1.0346286                                                           
 Model                             17         92                                                            -1.7995635                              1_GWF-(84301)
 Backtracking                      18                     1          3       49.852317       1.0702068                                                           
 Model                             18         90                                                            -1.7981824                              1_GWF-(84301)
 Backtracking                      19                     1          3       49.787273       1.1067340                                                           
 Model                             19         82                                                            -1.7967051                              1_GWF-(84301)
 Backtracking                      20                     1          3       49.718957       1.1441021                                                           
 Model                             20         88                                                            -1.7954192                              1_GWF-(84301)
 Backtracking                      21                     1          3       49.656152       1.1822213                                                           
 Model                             21         94                                                            -1.7939148                              1_GWF-(84301)
 Backtracking                      22                     1          3       49.592611       1.2210075                                                           
 Model                             22        103                                                            -1.7924356                              1_GWF-(84301)
 Backtracking                      23                     1          3       49.526859       1.2603842                                                           
 Model                             23         85                                                            -1.7912394                              1_GWF-(84301)
 Backtracking                      24                     1          3       49.463574       1.3002872                                                           
 Model                             24         95                                                            -1.7894631                              1_GWF-(84301)
 Backtracking                      25                     1          3       49.396649       1.3406544                                                           
 Model                             25         79                                                            -1.7887687                              1_GWF-(84301)
 Backtracking                      26                     1          3       49.345389       1.3814465                                                           
 Model                             26         86                                                            -1.7869147                              1_GWF-(84301)
 Backtracking                      27                     1          3       49.275729       1.4226010                                                           
 Model                             27        103                                                            -1.7852261                              1_GWF-(84301)
 Backtracking                      28                     1          3       49.203299       1.4640734                                                           
 Model                             28        111                                                            -1.7838321                              1_GWF-(84301)
 Backtracking                      29                     1          3       49.139678       1.5058338                                                           
 Model                             29         98                                                            -1.7823874                              1_GWF-(84301)
 Backtracking                      30                     1          3       49.075202       1.5478479                                                           
 Model                             30         93                                                            -1.7809090                              1_GWF-(84301)
 Backtracking                      31                     1          3       49.009827       1.5900847                                                           
 Model                             31         93                                                            -1.7794847                              1_GWF-(84301)
 Backtracking                      32                     1          3       48.946017       1.6325186                                                           
 Model                             32         98                                                            -1.7781056                              1_GWF-(84301)
 Backtracking                      33                     1          3       48.882775       1.6751257                                                           
 Model                             33         93                                                            -1.7766412                              1_GWF-(84301)
 Backtracking                      34                     1          3       48.817431       1.7178821                                                           
 Model                             34        100                                                            -1.7752549                              1_GWF-(84301)
 Backtracking                      35                     1          3       48.754324       1.7607701                                                           
 Model                             35         89                                                            -1.7737555                              1_GWF-(84301)
 Backtracking                      36                     1          3       48.688388       1.8037690                                                           
 Model                             36        101                                                            -1.7724034                              1_GWF-(84301)
 Backtracking                      37                     1          3       48.626660       1.8468665                                                           
 Model                             37        101                                                            -1.7709825                              1_GWF-(84301)
 Backtracking                      38                     1          3       48.563219       1.8900463                                                           
 Model                             38        100                                                            -1.7695557                              1_GWF-(84301)
 Backtracking                      39                     1          3       48.499466       1.9332945                                                           
 Model                             39         92                                                            -1.7680762                              1_GWF-(84301)
 Backtracking                      40                     1          3       48.435256       1.9765986                                                           
 Model                             40         95                                                            -1.7666983                              1_GWF-(84301)
 Backtracking                      41                     1          3       48.371882       2.0199481                                                           
 Model                             41         91                                                            -1.7652647                              1_GWF-(84301)
 Backtracking                      42                     1          3       48.307914       2.0633323                                                           
 Model                             42         94                                                            -1.7638316                              1_GWF-(84301)
 Backtracking                      43                     1          3       48.245303       2.1067431                                                           
 Model                             43        100                                                            -1.7624554                              1_GWF-(84301)
 Backtracking                      44                     1          3       48.181972       2.1501713                                                           
 Model                             44         94                                                            -1.7610142                              1_GWF-(84301)
 Backtracking                      45                     1          3       48.118401       2.1936088                                                           
 Model                             45         89                                                            -1.7595758                              1_GWF-(84301)
 Backtracking                      46                     1          3       48.054077       2.2370477                                                           
 Model                             46         97                                                            -1.7581589                              1_GWF-(84301)
 Backtracking                      47                     1          3       47.992066       2.2804835                                                           
 Model                             47         90                                                            -1.7567471                              1_GWF-(84301)
 Backtracking                      48                     1          3       47.928363       2.3239084                                                           
 Model                             48         96                                                            -1.7553630                              1_GWF-(84301)
 Backtracking                      49                     1          3       47.865580       2.3673178                                                           
 Model                             49         95                                                            -1.7539594                              1_GWF-(84301)
 Backtracking                      50                     1          3       47.802803       2.4107064                                                           
 Model                             50         94                                                            -1.7525471                              1_GWF-(84301)
 Backtracking                      51                     1          3       47.739815       2.4540692                                                           
 Model                             51         94                                                            -1.7511386                              1_GWF-(84301)
 Backtracking                      52                     1          3       47.677026       2.4974018                                                           
 Model                             52         95                                                            -1.7497357                              1_GWF-(84301)
 Backtracking                      53                     1          3       47.614069       2.5407000                                                           
 Model                             53        101                                                            -1.7483316                              1_GWF-(84301)
 Backtracking                      54                     1          3       47.551735       2.5839605                                                           
 Model                             54        105                                                            -1.7469232                              1_GWF-(84301)
 Backtracking                      55                     1          3       47.489131       2.6271795                                                           
 Model                             55         95                                                            -1.7455089                              1_GWF-(84301)
 Backtracking                      56                     1          3       47.426533       2.6703537                                                           
 Model                             56         98                                                            -1.7441084                              1_GWF-(84301)
 Backtracking                      57                     1          3       47.363934       2.7134800                                                           
 Model                             57         95                                                            -1.7427028                              1_GWF-(84301)
 Backtracking                      58                     1          3       47.301276       2.7565554                                                           
 Model                             58         96                                                            -1.7413009                              1_GWF-(84301)
 Backtracking                      59                     1          3       47.238915       2.7995775                                                           
 Model                             59         96                                                            -1.7398998                              1_GWF-(84301)
 Backtracking                      60                     1          3       47.176558       2.8425438                                                           
 Model                             60         91                                                            -1.7384883                              1_GWF-(84301)
 Backtracking                      61                     1          3       47.113970       2.8854518                                                           
 Model                             61         96                                                            -1.7371061                              1_GWF-(84301)
 Backtracking                      62                     1          3       47.051977       2.9282998                                                           
 Model                             62         92                                                            -1.7357028                              1_GWF-(84301)
 Backtracking                      63                     1          3       46.989988       2.9710857                                                           
 Model                             63         97                                                            -1.7343042                              1_GWF-(84301)
 Backtracking                      64                     1          3       46.927929       3.0138077                                                           
 Model                             64         92                                                            -1.7328943                              1_GWF-(84301)
 Backtracking                      65                     1          3       46.865867       3.0564638                                                           
 Model                             65         96                                                            -1.7315011                              1_GWF-(84301)
 Backtracking                      66                     1          3       46.804259       3.0990529                                                           
 Model                             66         95                                                            -1.7301058                              1_GWF-(84301)
 Backtracking                      67                     1          3       46.742116       3.1415727                                                           
 Model                             67        102                                                            -1.7287117                              1_GWF-(84301)
 Backtracking                      68                     1          3       46.680523       3.1840225                                                           
 Model                             68         97                                                            -1.7273078                              1_GWF-(84301)
 Backtracking                      69                     1          3       46.618955       3.2264007                                                           
 Model                             69         95                                                            -1.7259432                              1_GWF-(84301)
 Backtracking                      70                     1          3       46.556682       3.2687054                                                           
 Model                             70         91                                                            -1.7244874                              1_GWF-(84301)
 Backtracking                      71                     1          3       46.495581       3.3109366                                                           
 Model                             71         81                                                            -1.7218793                              1_GWF-(84301)
 Backtracking                      72                     1          3       46.401494       3.3530603                                                           
 Model                             72         89                                                            -1.7217932                              1_GWF-(84301)
 Backtracking                      73                     1          3       46.371685       3.3951392                                                           
 Model                             73         98                                                            -1.7203673                              1_GWF-(84301)
 Backtracking                      74                     1          3       46.311098       3.4371416                                                           
 Model                             74         91                                                            -1.7189846                              1_GWF-(84301)
 Backtracking                      75                     1          3       46.249394       3.4790656                                                           
 Model                             75         93                                                            -1.7175955                              1_GWF-(84301)
 Backtracking                      76                     1          3       46.188092       3.5209105                                                           
 Model                             76         97                                                            -1.7162197                              1_GWF-(84301)
 Backtracking                      77                     1          3       46.126940       3.5626758                                                           
 Model                             77         94                                                            -1.7148319                              1_GWF-(84301)
 Backtracking                      78                     1          3       46.066039       3.6043608                                                           
 Model                             78         92                                                            -1.7134356                              1_GWF-(84301)
 Backtracking                      79                     1          3       46.004953       3.6459645                                                           
 Model                             79         91                                                            -1.7120568                              1_GWF-(84301)
 Backtracking                      80                     1          3       45.943938       3.6874863                                                           
 Model                             80         95                                                            -1.7106638                              1_GWF-(84301)
 Backtracking                      81                     1          3       45.883069       3.7289257                                                           
 Model                             81         90                                                            -1.7093566                              1_GWF-(84301)
 Backtracking                      82                     1          3       45.823031       3.7702828                                                           
 Model                             82         94                                                            -1.7079202                              1_GWF-(84301)
 Backtracking                      83                     1          3       45.760995       3.8115551                                                           
 Model                             83         89                                                            -1.7065656                              1_GWF-(84301)
 Backtracking                      84                     1          3       45.700582       3.8527435                                                           
 Model                             84         95                                                            -1.7051666                              1_GWF-(84301)
 Backtracking                      85                     1          3       45.639444       3.8938468                                                           
 Model                             85         88                                                            -1.7038358                              1_GWF-(84301)
 Backtracking                      86                     1          3       45.579056       3.9348652                                                           
 Model                             86         95                                                            -1.7024310                              1_GWF-(84301)
 Backtracking                      87                     1          3       45.517965       3.9757975                                                           
 Model                             87        108                                                            -1.7010193                              1_GWF-(84301)
 Backtracking                      88                     1          3       45.459044       4.0166454                                                           
 Model                             88         92                                                            -1.6996503                              1_GWF-(84301)
 Backtracking                      89                     1          3       45.397995       4.0574064                                                           
 Model                             89        100                                                            -1.6982561                              1_GWF-(84301)
 Backtracking                      90                     1          3       45.337488       4.0980805                                                           
 Model                             90         95                                                            -1.6968844                              1_GWF-(84301)
 Backtracking                      91                     1          3       45.276972       4.1386675                                                           
 Model                             91        113                                                            -1.6955156                              1_GWF-(84301)
 Backtracking                      92                     1          3       45.216065       4.1791664                                                           
 Model                             92         94                                                            -1.6941426                              1_GWF-(84301)
 Backtracking                      93                     1          3       45.156993       4.2195788                                                           
 Model                             93         91                                                            -1.6927860                              1_GWF-(84301)
 Backtracking                      94                     1          3       45.097156       4.2599036                                                           
 Model                             94         89                                                            -1.6914363                              1_GWF-(84301)
 Backtracking                      95                     1          3       45.036614       4.3001398                                                           
 Model                             95         94                                                            -1.6901065                              1_GWF-(84301)
 Backtracking                      96                     1          3       44.975295       4.3402862                                                           
 Model                             96         95                                                            -1.6887257                              1_GWF-(84301)
 Backtracking                      97                     1          3       44.915514       4.3803442                                                           
 Model                             97         93                                                            -1.6873429                              1_GWF-(84301)
 Backtracking                      98                     1          3       44.855830       4.4203136                                                           
 Model                             98        114                                                            -1.6859311                              1_GWF-(84301)
 Backtracking                      99                     1          3       44.795847       4.4601938                                                           
 Model                             99         97                                                            -1.6845849                              1_GWF-(84301)
 Backtracking                     100                     1          3       44.736661       4.4999854                                                           
 Model                            100         96                                                            -1.6832445                              1_GWF-(84301)
 Backtracking                     101                     1          3       44.676643       4.5396873                                                           
 Model                            101         98                                                            -1.6819001                              1_GWF-(84301)
 Backtracking                     102                     1          3       44.616767       4.5792994                                                           
 Model                            102         94                                                            -1.6804789                              1_GWF-(84301)
 Backtracking                     103                     1          3       44.558011       4.6188227                                                           
 Model                            103         92                                                            -1.6791390                              1_GWF-(84301)
 Backtracking                     104                     1          3       44.498169       4.6582559                                                           
 Model                            104         94                                                            -1.6777526                              1_GWF-(84301)
 Backtracking                     105                     1          3       44.438898       4.6975994                                                           
 Model                            105         89                                                            -1.6764596                              1_GWF-(84301)
 Backtracking                     106                     1          3       44.379227       4.7368526                                                           
 Model                            106         93                                                            -1.6750517                              1_GWF-(84301)
 Backtracking                     107                     1          3       44.320194       4.7760160                                                           
 Model                            107         93                                                            -1.6736908                              1_GWF-(84301)
 Backtracking                     108                     1          3       44.261001       4.8150892                                                           
 Model                            108         94                                                            -1.6723734                              1_GWF-(84301)
 Backtracking                     109                     1          3       44.201239       4.8540716                                                           
 Model                            109         94                                                            -1.6710378                              1_GWF-(84301)
 Backtracking                     110                     1          3       44.141927       4.8929636                                                           
 Model                            110         93                                                            -1.6696616                              1_GWF-(84301)
 Backtracking                     111                     1          3       44.083088       4.9317653                                                           
 Model                            111         95                                                            -1.6683342                              1_GWF-(84301)
 Backtracking                     112                     1          3       44.023717       4.9704763                                                           
 Model                            112        107                                                            -1.6668831                              1_GWF-(84301)
 Backtracking                     113                     1          3       43.964484       5.0090964                                                           
 Model                            113         94                                                            -1.6655845                              1_GWF-(84301)
 Backtracking                     114                     1          3       43.906525       5.0476270                                                           
 Model                            114         92                                                            -1.6642479                              1_GWF-(84301)
 Backtracking                     115                     1          3       43.847496       5.0860667                                                           
 Model                            115         89                                                            -1.6629602                              1_GWF-(84301)
 Backtracking                     116                     1          3       43.791240       5.1244184                                                           
 Model                            116         95                                                            -1.6615249                              1_GWF-(84301)
 Backtracking                     117                     1          3       43.730454       5.1626774                                                           
 Model                            117        103                                                            -1.6601769                              1_GWF-(84301)
 Backtracking                     118                     1          3       43.671342       5.2008452                                                           
 Model                            118         92                                                            -1.6588620                              1_GWF-(84301)
 Backtracking                     119                     1          3       43.612788       5.2389225                                                           
 Model                            119         93                                                            -1.6574937                              1_GWF-(84301)
 Backtracking                     120                     1          3       43.554503       5.2769093                                                           
 Model                            120        100                                                            -1.6561417                              1_GWF-(84301)
 Backtracking                     121                     1          3       43.496387       5.3148058                                                           
 Model                            121         94                                                            -1.6547685                              1_GWF-(84301)
 Backtracking                     122                     1          3       43.438081       5.3526118                                                           
 Model                            122         94                                                            -1.6534528                              1_GWF-(84301)
 Backtracking                     123                     1          3       43.379443       5.3903269                                                           
 Model                            123         95                                                            -1.6521411                              1_GWF-(84301)
 Backtracking                     124                     1          3       43.320796       5.4279509                                                           
 Model                            124         95                                                            -1.6507599                              1_GWF-(84301)
 Backtracking                     125                     1          3       43.262973       5.4654847                                                           
 Model                            125         94                                                            -1.6494382                              1_GWF-(84301)
 Backtracking                     126                     1          3       43.204701       5.5029279                                                           
 Model                            126        100                                                            -1.6480999                              1_GWF-(84301)
 Backtracking                     127                     1          3       43.146515       5.5402804                                                           
 Model                            127        103                                                            -1.6467271                              1_GWF-(84301)
 Backtracking                     128                     1          3       43.087969       5.5775419                                                           
 Model                            128         93                                                            -1.6454078                              1_GWF-(84301)
 Backtracking                     129                     1          3       43.030778       5.6147136                                                           
 Model                            129         95                                                            -1.6440763                              1_GWF-(84301)
 Backtracking                     130                     1          3       42.972833       5.6517949                                                           
 Model                            130         94                                                            -1.6427365                              1_GWF-(84301)
 Backtracking                     131                     1          3       42.915040       5.6887859                                                           
 Model                            131         94                                                            -1.6414622                              1_GWF-(84301)
 Backtracking                     132                     1          3       42.856616       5.7256859                                                           
 Model                            132         95                                                            -1.6400695                              1_GWF-(84301)
 Backtracking                     133                     1          3       42.799496       5.7624961                                                           
 Model                            133         92                                                            -1.6387350                              1_GWF-(84301)
 Backtracking                     134                     1          3       42.741820       5.7992161                                                           
 Model                            134        112                                                            -1.6373696                              1_GWF-(84301)
 Backtracking                     135                     1          3       42.683107       5.8358448                                                           
 Model                            135        116                                                            -1.6360456                              1_GWF-(84301)
 Backtracking                     136                     1          3       42.625602       5.8723834                                                           
 Model                            136        113                                                            -1.6347102                              1_GWF-(84301)
 Backtracking                     137                     1          3       42.568147       5.9088320                                                           
 Model                            137         93                                                            -1.6334096                              1_GWF-(84301)
 Backtracking                     138                     1          3       42.511833       5.9451916                                                           
 Model                            138        102                                                            -1.6320400                              1_GWF-(84301)
 Backtracking                     139                     1          3       42.453222       5.9814601                                                           
 Model                            139        114                                                            -1.6307242                              1_GWF-(84301)
 Backtracking                     140                     1          3       42.396050       6.0176388                                                           
 Model                            140        108                                                            -1.6293811                              1_GWF-(84301)
 Backtracking                     141                     1          3       42.338692       6.0537275                                                           
 Model                            141         94                                                            -1.6280958                              1_GWF-(84301)
 Backtracking                     142                     1          3       42.282855       6.0897279                                                           
 Model                            142         97                                                            -1.6267463                              1_GWF-(84301)
 Backtracking                     143                     1          3       42.226033       6.1256389                                                           
 Model                            143        107                                                            -1.6253974                              1_GWF-(84301)
 Backtracking                     144                     1          3       42.167309       6.1614586                                                           
 Model                            144         94                                                            -1.6242094                              1_GWF-(84301)
 Backtracking                     145                     1          3       42.110750       6.1971892                                                           
 Model                            145         93                                                            -1.6227817                              1_GWF-(84301)
 Backtracking                     146                     1          3       42.055036       6.2328317                                                           
 Model                            146         95                                                            -1.6214946                              1_GWF-(84301)
 Backtracking                     147                     1          3       41.997826       6.2683844                                                           
 Model                            147        101                                                            -1.6201588                              1_GWF-(84301)
 Backtracking                     148                     1          3       41.940198       6.3038471                                                           
 Model                            148        107                                                            -1.6188059                              1_GWF-(84301)
 Backtracking                     149                     1          3       41.882813       6.3392200                                                           
 Model                            149         93                                                            -1.6176425                              1_GWF-(84301)
 Backtracking                     150                     1          3       41.826488       6.3745041                                                           
 Model                            150         96                                                            -1.6161907                              1_GWF-(84301)
 Backtracking                     151                     1          3       41.770742       6.4097001                                                           
 Model                            151        107                                                            -1.6148325                              1_GWF-(84301)
 Backtracking                     152                     1          3       41.713044       6.4448061                                                           
 Model                            152         94                                                            -1.6135648                              1_GWF-(84301)
 Backtracking                     153                     1          3       41.658038       6.4798248                                                           
 Model                            153         94                                                            -1.6122845                              1_GWF-(84301)
 Backtracking                     154                     1          3       41.601384       6.5147545                                                           
 Model                            154         93                                                            -1.6109678                              1_GWF-(84301)
 Backtracking                     155                     1          3       41.545012       6.5495956                                                           
 Model                            155         88                                                            -1.6094033                              1_GWF-(84301)
 Backtracking                     156                     1          3       41.479682       6.5843392                                                           
 Model                            156        107                                                            -1.6082816                              1_GWF-(84301)
 Backtracking                     157                     1          3       41.431001       6.6190020                                                           
 Model                            157         98                                                            -1.6070082                              1_GWF-(84301)
 Backtracking                     158                     1          3       41.376498       6.6535781                                                           
 Model                            158         94                                                            -1.6057146                              1_GWF-(84301)
 Backtracking                     159                     1          3       41.320159       6.6880657                                                           
 Model                            159        114                                                            -1.6043532                              1_GWF-(84301)
 Backtracking                     160                     1          3       41.262787       6.7224640                                                           
 Model                            160         93                                                            -1.6031028                              1_GWF-(84301)
 Backtracking                     161                     1          3       41.207965       6.7567754                                                           
 Model                            161        122                                                            -1.6017083                              1_GWF-(84301)
 Backtracking                     162                     1          3       41.150231       6.7909971                                                           
 Model                            162        106                                                            -1.6004290                              1_GWF-(84301)
 Backtracking                     163                     1          3       41.094882       6.8251315                                                           
 Model                            163        114                                                            -1.5991280                              1_GWF-(84301)
 Backtracking                     164                     1          2       41.039086       7.1656850                                                           
 Model                            164         95                                                            -1.5861244                              1_GWF-(84301)
 Backtracking                     165                     1          2       40.683493       7.4994609                                                           
 Model                            165        103                                                            -1.5731685                              1_GWF-(84301)
 Backtracking                     166                     1          2       40.329435       7.8265136                                                           
 Model                            166        114                                                            -1.5602708                              1_GWF-(84301)
 Backtracking                     167                     1          2       39.976882       8.1469022                                                           
 Model                            167         97                                                            -1.5476190                              1_GWF-(84301)
 Backtracking                     168                     1          2       39.630850       8.4607396                                                           
 Model                            168        119                                                            -1.5349152                              1_GWF-(84301)
 Backtracking                     169                     1          2       39.283951       8.7680672                                                           
 Model                            169        113                                                            -1.5223736                              1_GWF-(84301)
 Backtracking                     170                     1          2       38.941942       9.0689862                                                           
 Model                            170        110                                                            -1.5099319                              1_GWF-(84301)
 Backtracking                     171                     1          2       38.602735       9.3635780                                                           
 Model                            171        109                                                            -1.4975826                              1_GWF-(84301)
 Backtracking                     172                     1          2       38.266381       9.6519254                                                           
 Model                            172        102                                                            -1.4854476                              1_GWF-(84301)
 Backtracking                     173                     1          2       37.934467       9.9341274                                                           
 Model                            173         93                                                            -1.4733741                              1_GWF-(84301)
 Backtracking                     174                     1          2       37.603871       10.210252                                                           
 Model                            174        114                                                            -1.4611884                              1_GWF-(84301)
 Backtracking                     175                     1          2       37.275029       10.480373                                                           
 Model                            175         92                                                            -1.4493160                              1_GWF-(84301)
 Backtracking                     176                     1          2       36.952119       10.744604                                                           
 Model                            176         93                                                            -1.4374998                              1_GWF-(84301)
 Backtracking                     177                     1          2       36.629809       11.003005                                                           
 Model                            177         87                                                            -1.4256711                              1_GWF-(84301)
 Backtracking                     178                     1          2       36.307965       11.255637                                                           
 Model                            178         92                                                            -1.4140795                              1_GWF-(84301)
 Backtracking                     179                     1          2       35.994071       11.502634                                                           
 Model                            179        102                                                            -1.4025247                              1_GWF-(84301)
 Backtracking                     180                     1          2       35.679117       11.744037                                                           
 Model                            180         95                                                            -1.3911373                              1_GWF-(84301)
 Backtracking                     181                     1          2       35.368446       11.979944                                                           
 Model                            181         96                                                            -1.3796631                              1_GWF-(84301)
 Backtracking                     182                     1          2       35.060670       12.210436                                                           
 Model                            182         96                                                            -1.3683998                              1_GWF-(84301)
 Backtracking                     183                     1          2       34.754429       12.435581                                                           
 Model                            183         93                                                            -1.3571852                              1_GWF-(84301)
 Backtracking                     184                     1          2       34.451696       12.655466                                                           
 Model                            184        102                                                            -1.3460257                              1_GWF-(84301)
 Backtracking                     185                     1          2       34.150281       12.870155                                                           
 Model                            185         93                                                            -1.3350841                              1_GWF-(84301)
 Backtracking                     186                     1          2       33.852949       13.079739                                                           
 Model                            186         85                                                            -1.3241201                              1_GWF-(84301)
 Backtracking                     187                     1          2       33.556620       13.284278                                                           
 Model                            187         80                                                            -1.3126643                              1_GWF-(84301)
 Backtracking                     188                     1          2       33.243415       13.483653                                                           
 Model                            188         97                                                            -1.3025240                              1_GWF-(84301)
 Backtracking                     189                     1          2       32.974211       13.678355                                                           
 Model                            189         98                                                            -1.2919379                              1_GWF-(84301)
 Backtracking                     190                     1          2       32.686066       13.868239                                                           
 Model                            190        102                                                            -1.2812791                              1_GWF-(84301)
 Backtracking                     191                     1          2       32.399225       14.053367                                                           
 Model                            191         93                                                            -1.2708517                              1_GWF-(84301)
 Backtracking                     192                     1          2       32.117093       14.233831                                                           
 Model                            192        107                                                            -1.2603783                              1_GWF-(84301)
 Backtracking                     193                     1          2       31.835952       14.409689                                                           
 Model                            193        109                                                            -1.2501444                              1_GWF-(84301)
 Backtracking                     194                     1          2       31.558319       14.581020                                                           
 Model                            194         98                                                            -1.2398411                              1_GWF-(84301)
 Backtracking                     195                     1          2       31.283315       14.747896                                                           
 Model                            195         92                                                            -1.2296904                              1_GWF-(84301)
 Backtracking                     196                     1          2       31.008630       14.910363                                                           
 Model                            196        106                                                            -1.2196343                              1_GWF-(84301)
 Backtracking                     197                     1          2       30.737641       15.068503                                                           
 Model                            197         95                                                            -1.2095915                              1_GWF-(84301)
 Backtracking                     198                     1          2       30.470067       15.222392                                                           
 Model                            198        101                                                            -1.1997593                              1_GWF-(84301)
 Backtracking                     199                     1          2       30.203030       15.372078                                                           
 Model                            199        101                                                            -1.1899052                              1_GWF-(84301)
 Backtracking                     200                     1          2       29.939265       15.517635                                                           
 Model                            200        112                                                            -1.1800380                              1_GWF-(84301)
 Backtracking                     201                     1          2       29.675375       15.659103                                                           
 Model                            201        115                                                            -1.1703608                              1_GWF-(84301)
 Backtracking                     202                     1          2       29.415681       15.796564                                                           
 Model                            202        105                                                            -1.1608630                              1_GWF-(84301)
 Backtracking                     203                     1          2       29.160372       15.930103                                                           
 Model                            203        106                                                            -1.1513487                              1_GWF-(84301)
 Backtracking                     204                     1          2       28.904502       16.059751                                                           
 Model                            204        111                                                            -1.1417638                              1_GWF-(84301)
 Backtracking                     205                     1          2       28.649904       16.185561                                                           
 Model                            205        114                                                            -1.1327925                              1_GWF-(84301)
 Backtracking                     206                     1          2       28.399295       16.307611                                                           
 Model                            206        102                                                            -1.1232566                              1_GWF-(84301)
 Backtracking                     207                     1          2       28.151545       16.425967                                                           
 Model                            207         92                                                            -1.1139941                              1_GWF-(84301)
 Backtracking                     208                     1          2       27.906046       16.540688                                                           
 Model                            208         95                                                            -1.1048727                              1_GWF-(84301)
 Backtracking                     209                     1          2       27.661886       16.651823                                                           
 Model                            209         94                                                            -1.0958216                              1_GWF-(84301)
 Backtracking                     210                     1          2       27.418574       16.759417                                                           
 Model                            210         94                                                            -1.0867818                              1_GWF-(84301)
 Backtracking                     211                     1          2       27.179537       16.863548                                                           
 Model                            211         96                                                            -1.0779261                              1_GWF-(84301)
 Backtracking                     212                     1          2       26.941027       16.964255                                                           
 Model                            212         93                                                            -1.0691871                              1_GWF-(84301)
 Backtracking                     213                     1          2       26.704146       17.061589                                                           
 Model                            213         94                                                            -1.0602101                              1_GWF-(84301)
 Backtracking                     214                     1          2       26.470809       17.155619                                                           
 Model                            214        100                                                            -1.0515490                              1_GWF-(84301)
 Backtracking                     215                     1          2       26.238808       17.246390                                                           
 Model                            215        107                                                            -1.0428939                              1_GWF-(84301)
 Backtracking                     216                     1          2       26.009124       17.333960                                                           
 Model                            216         92                                                            -1.0343293                              1_GWF-(84301)
 Backtracking                     217                     1          1       25.781135       18.178194                                                           
 Model                            217        107                                                           -0.94937894                              1_GWF-(84301)
 Backtracking                     218                     1          1       23.649775       18.725019                                                           
 Model                            218         91                                                           -0.87135920                              1_GWF-(84301)
 Backtracking                     219                     1          1       21.694569       19.021738                                                           
 Model                            219        100                                                           -0.79978272                              1_GWF-(84301)
 Backtracking                     220                     0          0       19.900623       19.900623                       *                                   
 Model                            220         75                                                           -0.14223002                              1_GWF-(84301)
 Backtracking                     221                     0          0       3.5533163       3.5533163                       *                                   
 Model                            221         78                                                       -2.55363982E-02                              1_GWF-(84301)
 Backtracking                     222                     0          0      0.62881708      0.62881708                       *                                   
 Model                            222         57                                                       -4.35205861E-03                              1_GWF-(84301)
 Backtracking                     223                     0          0      0.11443277      0.11443277                       *                                   
 Model                            223         65                                                       -8.69537207E-04       *                      1_GWF-(84301)
 ----------------------------------------------------------------------------------------------------------------------------------------------------------------


 223 CALLS TO NUMERICAL SOLUTION IN TIME STEP 1 STRESS PERIOD 1
 21571 TOTAL ITERATIONS

 MEMORY MANAGER TOTAL STORAGE BY DATA TYPE, IN MEGABYTES
 -------------------------------
                    ALLOCATED   
 DATA TYPE           MEMORY     
 -------------------------------
 Character        1.04880000E-02
 Logical          4.80000000E-05
 Integer          40.411108     
 Real             97.611024     
 -------------------------------
 Total            138.03267     
 Virtual          0.0000000     
 -------------------------------


 
 Run end date and time (yyyy/mm/dd hh:mm:ss): 2026/02/12  1:03:19
 Elapsed run time:  1 Minutes, 38.386 Seconds
 Normal termination of simulation.
