                                   MODFLOW 6
                U.S. GEOLOGICAL SURVEY MODULAR HYDROLOGIC MODEL
                            VERSION 6.6.0 12/20/2024

   MODFLOW 6 compiled Dec 31 2024 17:10:16 with Intel(R) Fortran Intel(R) 64
   Compiler Classic for applications running on Intel(R) 64, Version 2021.7.0
                             Build 20220726_000000

This software has been approved for release by the U.S. Geological 
Survey (USGS). Although the software has been subjected to rigorous 
review, the USGS reserves the right to update the software as needed 
pursuant to further analysis and review. No warranty, expressed or 
implied, is made by the USGS or the U.S. Government as to the 
functionality of the software and related material nor shall the 
fact of release constitute any such warranty. Furthermore, the 
software is released on condition that neither the USGS nor the U.S. 
Government shall be held liable for any damages resulting from its 
authorized or unauthorized use. Also refer to the USGS Water 
Resources Software User Rights Notice for complete use, copyright, 
and distribution information.


As a work of the United States Government, this USGS product is 
in the public domain within the United States. You can copy, 
modify, distribute, and perform the work, even for commercial 
purposes, all without asking permission. Additionally, USGS 
waives copyright and related rights in the work worldwide 
through CC0 1.0 Universal Public Domain Dedication 
(https://creativecommons.org/publicdomain/zero/1.0/).

The following GNU Lesser General Public License (LGPL) libraries
are used in this USGS product:

    SPARSKIT version 2.0
      ilut, luson, and qsplit 
      (https://www-users.cse.umn.edu/~saad/software/SPARSKIT/)

    RCM - Reverse Cuthill McKee Ordering
      (https://people.math.sc.edu/Burkardt/f_src/rcm/rcm.html)

    BLAS - Basic Linear Algebra Subprograms Level 1
      (https://people.math.sc.edu/Burkardt/f_src/blas1_d/blas1_d.html)

    SPARSEKIT - Sparse Matrix Utility Package
      amux, dperm, dvperm, rperm, and cperm
      (https://people.sc.fsu.edu/~jburkardt/f77_src/sparsekit/sparsekit.html)

The following BSD-3 License libraries are used in this USGS product:

    Modern Fortran DAG Library
      Copyright (c) 2018, Jacob Williams
      All rights reserved.
      (https://github.com/jacobwilliams/daglib)

MODFLOW 6 compiler options: /O2 /heap-arrays:0 /fpe:0 /traceback /nologo /fpp
/c /module:win64\mod_mf6\ /object:win64\obj_mf6\

System command used to initiate simulation:
mf6

MODFLOW was compiled using uniform precision.

Real Variables
  KIND: 8
  TINY (smallest non-zero value):    2.225074-308
  HUGE (largest value):    1.797693+308
  PRECISION: 15
  SIZE IN BITS: 64

Integer Variables
  KIND: 4
  HUGE (largest value): 2147483647
  SIZE IN BITS: 32

Long Integer Variables
  KIND: 8
  HUGE (largest value): 9223372036854775807
  SIZE IN BITS: 64

Logical Variables
  KIND: 4
  SIZE IN BITS: 32
 

 OPENED mfsim.nam
 FILE TYPE:NAM6               UNIT 1001   STATUS:OLD                 
 FORMAT:FORMATTED              ACCESS:SEQUENTIAL          
 ACTION:READ                

 # File generated by Flopy version 3.9.1 on 02/12/2026 at 10:43:57.

 OPENED DISU_model.tdis
 FILE TYPE:TDIS6              UNIT 1002   STATUS:OLD                 
 FORMAT:FORMATTED              ACCESS:SEQUENTIAL          
 ACTION:READ                

 # File generated by Flopy version 3.9.1 on 02/12/2026 at 10:43:57.

 OPENED DISU_model.nam
 FILE TYPE:GWF6               UNIT 1003   STATUS:OLD                 
 FORMAT:FORMATTED              ACCESS:SEQUENTIAL          
 ACTION:READ                

 # File generated by Flopy version 3.9.1 on 02/12/2026 at 10:43:57.

 OPENED DISU_model.disu
 FILE TYPE:DISU6              UNIT 1004   STATUS:OLD                 
 FORMAT:FORMATTED              ACCESS:SEQUENTIAL          
 ACTION:READ                

 # File generated by Flopy version 3.9.1 on 02/12/2026 at 10:43:57.

 OPENED DISU_model.npf
 FILE TYPE:NPF6               UNIT 1005   STATUS:OLD                 
 FORMAT:FORMATTED              ACCESS:SEQUENTIAL          
 ACTION:READ                

 # File generated by Flopy version 3.9.1 on 02/12/2026 at 10:44:07.

 OPENED DISU_model.ic
 FILE TYPE:IC6                UNIT 1006   STATUS:OLD                 
 FORMAT:FORMATTED              ACCESS:SEQUENTIAL          
 ACTION:READ                

 # File generated by Flopy version 3.9.1 on 02/12/2026 at 10:44:06.

 OPENED DISU_model.oc
 FILE TYPE:OC6       UNIT 1007   STATUS:OLD                 
 FORMAT:FORMATTED              ACCESS:SEQUENTIAL          
 ACTION:READ                


 OPENED DISU_model.wel
 FILE TYPE:WEL6               UNIT 1008   STATUS:OLD                 
 FORMAT:FORMATTED              ACCESS:SEQUENTIAL          
 ACTION:READ                

 # File generated by Flopy version 3.9.1 on 02/12/2026 at 10:44:07.

 OPENED quadtree_caseC.rch
 FILE TYPE:RCH6               UNIT 1010   STATUS:OLD                 
 FORMAT:FORMATTED              ACCESS:SEQUENTIAL          
 ACTION:READ                

 # File generated by Flopy version 3.9.1 on 02/12/2026 at 10:44:07.

 OPENED DISU_model.evt
 FILE TYPE:EVT6               UNIT 1012   STATUS:OLD                 
 FORMAT:FORMATTED              ACCESS:SEQUENTIAL          
 ACTION:READ                

 # File generated by Flopy version 3.9.1 on 02/12/2026 at 10:44:07.

 OPENED DISU_model.chd
 FILE TYPE:CHD6               UNIT 1013   STATUS:OLD                 
 FORMAT:FORMATTED              ACCESS:SEQUENTIAL          
 ACTION:READ                

 # File generated by Flopy version 3.9.1 on 02/12/2026 at 10:44:07.

 READING SIMULATION OPTIONS
    MAXIMUM NUMBER OF ERRORS THAT WILL BE STORED IS 1000
 END OF SIMULATION OPTIONS

 READING SIMULATION TIMING

 TDIS -- TEMPORAL DISCRETIZATION PACKAGE,
 VERSION 1 : 11/13/2014 - INPUT READ FROM MEMPATH: __INPUT__/SIM/TDIS                                
 PROCESSING TDIS OPTIONS
    SIMULATION TIME UNIT IS SECONDS
 END OF TDIS OPTIONS
 PROCESSING TDIS DIMENSIONS
    1 STRESS PERIOD(S) IN SIMULATION
 END OF TDIS DIMENSIONS
 PROCESSING TDIS PERIODDATA


 STRESS PERIOD     LENGTH       TIME STEPS     MULTIPLIER FOR DELT
 ----------------------------------------------------------------------------
        1         1.000000          1                    1.000
 END OF TDIS PERIODDATA
 END OF SIMULATION TIMING

 READING SIMULATION MODELS
    GWF6 model 1 will be created
 END OF SIMULATION MODELS

 READING SIMULATION EXCHANGES
 END OF SIMULATION EXCHANGES

 READING SOLUTIONGROUP

 Creating solution: SLN_1           

 OPENED DISU_model.ims
 FILE TYPE:IMS   UNIT 1015   STATUS:OLD                 
 FORMAT:FORMATTED              ACCESS:SEQUENTIAL          
 ACTION:READ                

 END OF SOLUTIONGROUP

PROCESSING MODEL CONNECTIONS

 IMS -- ITERATIVE MODEL SOLUTION PACKAGE, VERSION 6, 4/28/2017
         INPUT READ FROM UNIT 1015
 # File generated by Flopy version 3.9.1 on 02/12/2026 at 10:43:57.

 PROCESSING IMS OPTIONS
 COMPLEX OPTION:
 DEFAULT SOLVER INPUT VALUES REFLECT STRONGLY NONLINEAR MODEL
 END OF IMS OPTIONS

 PROCESSING IMS NONLINEAR
 END OF IMS NONLINEAR DATA
 **UNDER-RELAXATION WILL BE USED***
 

 PROCESSING LINEAR DATA
 END OF LINEAR DATA
 ***IMS LINEAR SOLVER WILL BE USED***

 IMSLINEAR -- UNSTRUCTURED LINEAR SOLUTION PACKAGE, VERSION 8, 04/28/2017
 An asymmetric matrix will be solved

 OUTER ITERATION CONVERGENCE CRITERION    (DVCLOSE) =    0.100000E-02
 MAXIMUM NUMBER OF OUTER ITERATIONS        (MXITER) = 300
 SOLVER PRINTOUT INDEX                     (IPRIMS) = 1
 NONLINEAR ITERATION METHOD            (NONLINMETH) = 3
 LINEAR SOLUTION METHOD                   (LINMETH) = 1
 UNDER-RELAXATION WEIGHT REDUCTION FACTOR   (THETA) =    0.800000E+00
 UNDER-RELAXATION WEIGHT INCREASE INCREMENT (KAPPA) =    0.100000E-03
 UNDER-RELAXATION PREVIOUS HISTORY FACTOR   (GAMMA) =    0.000000E+00
 UNDER-RELAXATION MOMENTUM TERM         (AMOMENTUM) =    0.000000E+00
 MAXIMUM NUMBER OF BACKTRACKS            (NUMTRACK) = 20
 BACKTRACKING TOLERANCE FACTOR               (BTOL) =    0.105000E+01
 BACKTRACKING REDUCTION FACTOR             (BREDUC) =    0.100000E+00
 BACKTRACKING RESIDUAL LIMIT              (RES_LIM) =    0.200000E-02

       SOLUTION BY THE BICONJUGATE-GRADIENT STABILIZED METHOD
 ------------------------------------------------------------------
 MAXIMUM OF 300 CALLS OF SOLUTION ROUTINE
 MAXIMUM OF 1200 INTERNAL ITERATIONS PER CALL TO SOLUTION ROUTINE
 LINEAR ACCELERATION METHOD            = BCGS      
 MATRIX PRECONDITIONING TYPE           = MOD. INCOMPLETE LUT 
 MATRIX SCALING APPROACH               = NO SCALING          
 MATRIX REORDERING APPROACH            = ORIGINAL ORDERING        
 NUMBER OF ORTHOGONALIZATIONS          = 2
 HEAD CHANGE CRITERION FOR CLOSURE     =    0.10000E-05
 RESIDUAL CHANGE CRITERION FOR CLOSURE =    0.10000E+00
 RESIDUAL CONVERGENCE OPTION           = 0
 RESIDUAL CONVERGENCE NORM             = INFINITY NORM   
 RELAXATION FACTOR                     =    0.92000E+00
 NUMBER OF LEVELS                      =              5
 DROP TOLERANCE                        =    0.10000E-03


 
    Solving:  Stress period:     1    Time step:     1
 
1
 STRESS PERIOD NO. 1, LENGTH =   1.000000    
 ------------------------------------------
 NUMBER OF TIME STEPS = 1
 MULTIPLIER FOR DELT =     1.000
 INITIAL TIME STEP SIZE =   1.000000    

 SLN_1 OUTER ITERATION SUMMARY
 ----------------------------------------------------------------------------------------------------------------------------------------------------------------
                                OUTER      INNER  BACKTRACK  BACKTRACK        INCOMING        OUTGOING                    STEP   MAXIMUM CHANGE MODEL-(CELLID) OR
 OUTER ITERATION STEP       ITERATION  ITERATION       FLAG ITERATIONS        RESIDUAL        RESIDUAL  MAXIMUM CHANGE SUCCESS             MODEL-PACKAGE-(NUMBER)
 ----------------------------------------------------------------------------------------------------------------------------------------------------------------
 Backtracking                       1                     0          0       1113179.5       1113179.5                       *                                   
 Model                              1        114                                                             252.41538                              1_GWF-(44199)
 Backtracking                       2                     0          0       1.1503961       1.1503961                       *                                   
 Model                              2         90                                                            -2.1256329                              1_GWF-(58762)
 Backtracking                       3                     1          2       36.514567       1.1942330                                                           
 Model                              3         85                                                            -2.1083911                              1_GWF-(58762)
 Backtracking                       4                     1          3       36.202615       1.2044280                                                           
 Model                              4         83                                                            -2.1066667                              1_GWF-(58762)
 Backtracking                       5                     1          3       36.156454       1.2155678                                                           
 Model                              5         98                                                            -2.1052946                              1_GWF-(58762)
 Backtracking                       6                     1          3       36.110750       1.2276197                                                           
 Model                              6         91                                                            -2.1036002                              1_GWF-(58762)
 Backtracking                       7                     1          3       36.064402       1.2405499                                                           
 Model                              7         93                                                            -2.1019293                              1_GWF-(58762)
 Backtracking                       8                     1          3       36.017403       1.2543241                                                           
 Model                              8         94                                                            -2.1002476                              1_GWF-(58762)
 Backtracking                       9                     1          3       35.970476       1.2689077                                                           
 Model                              9         73                                                            -2.0989719                              1_GWF-(58762)
 Backtracking                      10                     1          3       35.931223       1.2842702                                                           
 Model                             10        101                                                            -2.0968864                              1_GWF-(58762)
 Backtracking                      11                     1          3       35.876990       1.3003704                                                           
 Model                             11         88                                                            -2.0951986                              1_GWF-(58762)
 Backtracking                      12                     1          3       35.830280       1.3171781                                                           
 Model                             12         97                                                            -2.0935329                              1_GWF-(58762)
 Backtracking                      13                     1          3       35.783930       1.3346601                                                           
 Model                             13        102                                                            -2.0918591                              1_GWF-(58762)
 Backtracking                      14                     1          3       35.736929       1.3527838                                                           
 Model                             14         91                                                            -2.0901805                              1_GWF-(58762)
 Backtracking                      15                     1          3       35.690408       1.3715177                                                           
 Model                             15         96                                                            -2.0885022                              1_GWF-(58762)
 Backtracking                      16                     1          3       35.643924       1.3908310                                                           
 Model                             16         90                                                            -2.0868337                              1_GWF-(58762)
 Backtracking                      17                     1          3       35.597333       1.4106940                                                           
 Model                             17         90                                                            -2.0851576                              1_GWF-(58762)
 Backtracking                      18                     1          3       35.550998       1.4310780                                                           
 Model                             18         88                                                            -2.0834856                              1_GWF-(58762)
 Backtracking                      19                     1          3       35.504645       1.4519552                                                           
 Model                             19         89                                                            -2.0818209                              1_GWF-(58762)
 Backtracking                      20                     1          3       35.458238       1.4732991                                                           
 Model                             20         89                                                            -2.0801528                              1_GWF-(58762)
 Backtracking                      21                     1          3       35.411922       1.4950841                                                           
 Model                             21         94                                                            -2.0784875                              1_GWF-(58762)
 Backtracking                      22                     1          3       35.365630       1.5172858                                                           
 Model                             22         90                                                            -2.0768236                              1_GWF-(58762)
 Backtracking                      23                     1          3       35.319364       1.5398808                                                           
 Model                             23         90                                                            -2.0751559                              1_GWF-(58762)
 Backtracking                      24                     1          3       35.273396       1.5628470                                                           
 Model                             24         89                                                            -2.0734811                              1_GWF-(58762)
 Backtracking                      25                     1          3       35.227424       1.5861631                                                           
 Model                             25         83                                                            -2.0717554                              1_GWF-(58762)
 Backtracking                      26                     1          3       35.180201       1.6098081                                                           
 Model                             26         87                                                            -2.0701745                              1_GWF-(58762)
 Backtracking                      27                     1          3       35.135195       1.6337642                                                           
 Model                             27         88                                                            -2.0684984                              1_GWF-(58762)
 Backtracking                      28                     1          3       35.089471       1.6580125                                                           
 Model                             28         85                                                            -2.0668477                              1_GWF-(58762)
 Backtracking                      29                     1          3       35.043083       1.6825353                                                           
 Model                             29         91                                                            -2.0651899                              1_GWF-(58762)
 Backtracking                      30                     1          3       34.997484       1.7073165                                                           
 Model                             30         95                                                            -2.0635171                              1_GWF-(58762)
 Backtracking                      31                     1          3       34.951937       1.7323406                                                           
 Model                             31         93                                                            -2.0618752                              1_GWF-(58762)
 Backtracking                      32                     1          3       34.905938       1.7575922                                                           
 Model                             32         95                                                            -2.0602307                              1_GWF-(58762)
 Backtracking                      33                     1          3       34.859181       1.7830568                                                           
 Model                             33        101                                                            -2.0585539                              1_GWF-(58762)
 Backtracking                      34                     1          3       34.814692       1.8087227                                                           
 Model                             34         74                                                            -2.0580568                              1_GWF-(58762)
 Backtracking                      35                     1          3       34.781587       1.8345863                                                           
 Model                             35         90                                                            -2.0552493                              1_GWF-(58762)
 Backtracking                      36                     1          3       34.723419       1.8606157                                                           
 Model                             36         93                                                            -2.0536129                              1_GWF-(58762)
 Backtracking                      37                     1          3       34.677765       1.8868094                                                           
 Model                             37         88                                                            -2.0519515                              1_GWF-(58762)
 Backtracking                      38                     1          3       34.632524       1.9131570                                                           
 Model                             38         90                                                            -2.0503135                              1_GWF-(58762)
 Backtracking                      39                     1          3       34.586849       1.9396479                                                           
 Model                             39         86                                                            -2.0486557                              1_GWF-(58762)
 Backtracking                      40                     1          3       34.541638       1.9662728                                                           
 Model                             40         89                                                            -2.0470177                              1_GWF-(58762)
 Backtracking                      41                     1          3       34.496362       1.9930224                                                           
 Model                             41        101                                                            -2.0452998                              1_GWF-(58762)
 Backtracking                      42                     1          3       34.450378       2.0198874                                                           
 Model                             42         89                                                            -2.0437290                              1_GWF-(58762)
 Backtracking                      43                     1          3       34.405586       2.0468606                                                           
 Model                             43         90                                                            -2.0420862                              1_GWF-(58762)
 Backtracking                      44                     1          3       34.360444       2.0739338                                                           
 Model                             44         80                                                            -2.0403410                              1_GWF-(58762)
 Backtracking                      45                     1          3       34.313647       2.1010982                                                           
 Model                             45         84                                                            -2.0388160                              1_GWF-(58762)
 Backtracking                      46                     1          3       34.270055       2.1283495                                                           
 Model                             46         90                                                            -2.0371631                              1_GWF-(58762)
 Backtracking                      47                     1          3       34.225145       2.1556799                                                           
 Model                             47         89                                                            -2.0355123                              1_GWF-(58762)
 Backtracking                      48                     1          3       34.180115       2.1830829                                                           
 Model                             48         87                                                            -2.0338491                              1_GWF-(58762)
 Backtracking                      49                     1          3       34.134270       2.2105517                                                           
 Model                             49         85                                                            -2.0322058                              1_GWF-(58762)
 Backtracking                      50                     1          3       34.089668       2.2380818                                                           
 Model                             50         89                                                            -2.0306130                              1_GWF-(58762)
 Backtracking                      51                     1          3       34.045461       2.2656680                                                           
 Model                             51         89                                                            -2.0289816                              1_GWF-(58762)
 Backtracking                      52                     1          3       34.000458       2.2933045                                                           
 Model                             52         74                                                            -2.0284341                              1_GWF-(58762)
 Backtracking                      53                     1          3       33.969625       2.3209989                                                           
 Model                             53         86                                                            -2.0257140                              1_GWF-(58762)
 Backtracking                      54                     1          3       33.911101       2.3487220                                                           
 Model                             54         85                                                            -2.0240781                              1_GWF-(58762)
 Backtracking                      55                     1          3       33.866283       2.3764815                                                           
 Model                             55         90                                                            -2.0224434                              1_GWF-(58762)
 Backtracking                      56                     1          3       33.821844       2.4042734                                                           
 Model                             56         74                                                            -2.0216858                              1_GWF-(58762)
 Backtracking                      57                     1          3       33.791151       2.4321062                                                           
 Model                             57         89                                                            -2.0191784                              1_GWF-(58762)
 Backtracking                      58                     1          3       33.732112       2.4599505                                                           
 Model                             58         88                                                            -2.0175671                              1_GWF-(58762)
 Backtracking                      59                     1          3       33.688092       2.4878161                                                           
 Model                             59         88                                                            -2.0159508                              1_GWF-(58762)
 Backtracking                      60                     1          3       33.643620       2.5156992                                                           
 Model                             60         84                                                            -2.0142840                              1_GWF-(58762)
 Backtracking                      61                     1          3       33.598627       2.5435960                                                           
 Model                             61        123                                                            -2.0127045                              1_GWF-(58762)
 Backtracking                      62                     1          3       33.554763       2.5715042                                                           
 Model                             62         88                                                            -2.0110679                              1_GWF-(58762)
 Backtracking                      63                     1          3       33.510738       2.5994209                                                           
 Model                             63         84                                                            -2.0094553                              1_GWF-(58762)
 Backtracking                      64                     1          3       33.466202       2.6273425                                                           
 Model                             64         87                                                            -2.0078220                              1_GWF-(58762)
 Backtracking                      65                     1          3       33.422266       2.6552669                                                           
 Model                             65         91                                                            -2.0062207                              1_GWF-(58762)
 Backtracking                      66                     1          3       33.377907       2.6831912                                                           
 Model                             66         76                                                            -2.0056610                              1_GWF-(58762)
 Backtracking                      67                     1          3       33.350810       2.7111286                                                           
 Model                             67         94                                                            -2.0029826                              1_GWF-(58762)
 Backtracking                      68                     1          3       33.289687       2.7390455                                                           
 Model                             68         74                                                            -2.0027739                              1_GWF-(58762)
 Backtracking                      69                     1          3       33.260593       2.7669690                                                           
 Model                             69         85                                                            -1.9997488                              1_GWF-(58762)
 Backtracking                      70                     1          3       33.201713       2.7948697                                                           
 Model                             70         84                                                            -1.9981474                              1_GWF-(58762)
 Backtracking                      71                     1          3       33.157696       2.8227589                                                           
 Model                             71         87                                                            -1.9965270                              1_GWF-(58762)
 Backtracking                      72                     1          3       33.113871       2.8506350                                                           
 Model                             72         88                                                            -1.9949104                              1_GWF-(58762)
 Backtracking                      73                     1          3       33.070054       2.8784959                                                           
 Model                             73         88                                                            -1.9933124                              1_GWF-(58762)
 Backtracking                      74                     1          3       33.026128       2.9063399                                                           
 Model                             74         86                                                            -1.9916934                              1_GWF-(58762)
 Backtracking                      75                     1          3       32.982479       2.9341653                                                           
 Model                             75         86                                                            -1.9910678                              1_GWF-(58762)
 Backtracking                      76                     1          3       32.948700       2.9619798                                                           
 Model                             76         74                                                            -1.9890124                              1_GWF-(58762)
 Backtracking                      77                     1          3       32.909517       2.9897766                                                           
 Model                             77         88                                                            -1.9868705                              1_GWF-(58762)
 Backtracking                      78                     1          3       32.851204       3.0175364                                                           
 Model                             78         88                                                            -1.9852734                              1_GWF-(58762)
 Backtracking                      79                     1          3       32.807851       3.0452716                                                           
 Model                             79         81                                                            -1.9835562                              1_GWF-(58762)
 Backtracking                      80                     1          3       32.762436       3.0729789                                                           
 Model                             80         81                                                            -1.9820108                              1_GWF-(58762)
 Backtracking                      81                     1          3       32.719905       3.1006596                                                           
 Model                             81         79                                                            -1.9803231                              1_GWF-(58762)
 Backtracking                      82                     1          3       32.674717       3.1283100                                                           
 Model                             82        102                                                            -1.9788313                              1_GWF-(58762)
 Backtracking                      83                     1          3       32.633528       3.1559326                                                           
 Model                             83         88                                                            -1.9772918                              1_GWF-(58762)
 Backtracking                      84                     1          3       32.590522       3.1835244                                                           
 Model                             84         71                                                            -1.9762268                              1_GWF-(58762)
 Backtracking                      85                     1          3       32.561839       3.2110978                                                           
 Model                             85         87                                                            -1.9740677                              1_GWF-(58762)
 Backtracking                      86                     1          3       32.504008       3.2386242                                                           
 Model                             86         88                                                            -1.9724836                              1_GWF-(58762)
 Backtracking                      87                     1          3       32.460930       3.2661164                                                           
 Model                             87         94                                                            -1.9708802                              1_GWF-(58762)
 Backtracking                      88                     1          3       32.417473       3.2935731                                                           
 Model                             88         96                                                            -1.9692477                              1_GWF-(58762)
 Backtracking                      89                     1          3       32.374061       3.3209934                                                           
 Model                             89         90                                                            -1.9677022                              1_GWF-(58762)
 Backtracking                      90                     1          3       32.331334       3.3483769                                                           
 Model                             90         84                                                            -1.9660486                              1_GWF-(58762)
 Backtracking                      91                     1          3       32.287499       3.3757217                                                           
 Model                             91         76                                                            -1.9653632                              1_GWF-(58762)
 Backtracking                      92                     1          3       32.261323       3.4030437                                                           
 Model                             92         90                                                            -1.9629003                              1_GWF-(58762)
 Backtracking                      93                     1          3       32.202514       3.4303111                                                           
 Model                             93         88                                                            -1.9613482                              1_GWF-(58762)
 Backtracking                      94                     1          3       32.159591       3.4575381                                                           
 Model                             94         87                                                            -1.9597238                              1_GWF-(58762)
 Backtracking                      95                     1          3       32.116801       3.4847241                                                           
 Model                             95         73                                                            -1.9588493                              1_GWF-(58762)
 Backtracking                      96                     1          3       32.088529       3.5118822                                                           
 Model                             96         87                                                            -1.9565894                              1_GWF-(58762)
 Backtracking                      97                     1          3       32.031297       3.5389840                                                           
 Model                             97         83                                                            -1.9549969                              1_GWF-(58762)
 Backtracking                      98                     1          3       31.988224       3.5660425                                                           
 Model                             98         85                                                            -1.9534353                              1_GWF-(58762)
 Backtracking                      99                     1          3       31.945957       3.5930575                                                           
 Model                             99         88                                                            -1.9518323                              1_GWF-(58762)
 Backtracking                     100                     1          3       31.903108       3.6200281                                                           
 Model                            100         84                                                            -1.9502754                              1_GWF-(58762)
 Backtracking                     101                     1          3       31.860783       3.6469541                                                           
 Model                            101         86                                                            -1.9486649                              1_GWF-(58762)
 Backtracking                     102                     1          3       31.818062       3.6738344                                                           
 Model                            102         87                                                            -1.9470808                              1_GWF-(58762)
 Backtracking                     103                     1          3       31.775540       3.7006687                                                           
 Model                            103         91                                                            -1.9455217                              1_GWF-(58762)
 Backtracking                     104                     1          3       31.733009       3.7274566                                                           
 Model                            104         83                                                            -1.9439725                              1_GWF-(58762)
 Backtracking                     105                     1          3       31.690678       3.7541975                                                           
 Model                            105         89                                                            -1.9423774                              1_GWF-(58762)
 Backtracking                     106                     1          3       31.648281       3.7808909                                                           
 Model                            106         71                                                            -1.9417623                              1_GWF-(58762)
 Backtracking                     107                     1          3       31.620930       3.8075509                                                           
 Model                            107         83                                                            -1.9391616                              1_GWF-(58762)
 Backtracking                     108                     1          3       31.562617       3.8341472                                                           
 Model                            108         95                                                            -1.9376038                              1_GWF-(58762)
 Backtracking                     109                     1          3       31.520998       3.8606953                                                           
 Model                            109        101                                                            -1.9360334                              1_GWF-(58762)
 Backtracking                     110                     1          3       31.478856       3.8871943                                                           
 Model                            110         71                                                            -1.9356271                              1_GWF-(58762)
 Backtracking                     111                     1          3       31.452552       3.9136592                                                           
 Model                            111         80                                                            -1.9328339                              1_GWF-(58762)
 Backtracking                     112                     1          3       31.393369       3.9400576                                                           
 Model                            112         79                                                            -1.9312949                              1_GWF-(58762)
 Backtracking                     113                     1          3       31.351742       3.9664062                                                           
 Model                            113         83                                                            -1.9297053                              1_GWF-(58762)
 Backtracking                     114                     1          3       31.309421       3.9927040                                                           
 Model                            114         82                                                            -1.9281502                              1_GWF-(58762)
 Backtracking                     115                     1          3       31.267566       4.0189510                                                           
 Model                            115         88                                                            -1.9266804                              1_GWF-(58762)
 Backtracking                     116                     1          3       31.227081       4.0451482                                                           
 Model                            116         86                                                            -1.9251166                              1_GWF-(58762)
 Backtracking                     117                     1          3       31.185237       4.0712939                                                           
 Model                            117         96                                                            -1.9235073                              1_GWF-(58762)
 Backtracking                     118                     1          3       31.142976       4.0973874                                                           
 Model                            118         87                                                            -1.9219939                              1_GWF-(58762)
 Backtracking                     119                     1          3       31.101603       4.1234292                                                           
 Model                            119         70                                                            -1.9210365                              1_GWF-(58762)
 Backtracking                     120                     1          3       31.074777       4.1494332                                                           
 Model                            120         67                                                            -1.9201639                              1_GWF-(58762)
 Backtracking                     121                     1          3       31.033623       4.1753852                                                           
 Model                            121         90                                                            -1.9172906                              1_GWF-(58762)
 Backtracking                     122                     1          3       30.976582       4.2012693                                                           
 Model                            122         72                                                            -1.9170843                              1_GWF-(58762)
 Backtracking                     123                     1          3       30.950723       4.2271158                                                           
 Model                            123         87                                                            -1.9141679                              1_GWF-(58762)
 Backtracking                     124                     1          3       30.892904       4.2528931                                                           
 Model                            124         71                                                            -1.9138921                              1_GWF-(58762)
 Backtracking                     125                     1          3       30.867510       4.2786326                                                           
 Model                            125         94                                                            -1.9110761                              1_GWF-(58762)
 Backtracking                     126                     1          3       30.810242       4.3043031                                                           
 Model                            126         90                                                            -1.9095342                              1_GWF-(58762)
 Backtracking                     127                     1          3       30.768936       4.3299198                                                           
 Model                            127         90                                                            -1.9079939                              1_GWF-(58762)
 Backtracking                     128                     1          3       30.727589       4.3554825                                                           
 Model                            128         90                                                            -1.9064417                              1_GWF-(58762)
 Backtracking                     129                     1          3       30.686242       4.3809909                                                           
 Model                            129         73                                                            -1.9061614                              1_GWF-(58762)
 Backtracking                     130                     1          3       30.660582       4.4064601                                                           
 Model                            130         88                                                            -1.9033378                              1_GWF-(58762)
 Backtracking                     131                     1          3       30.603625       4.4318595                                                           
 Model                            131         83                                                            -1.9017464                              1_GWF-(58762)
 Backtracking                     132                     1          3       30.561954       4.4572036                                                           
 Model                            132         88                                                            -1.9002339                              1_GWF-(58762)
 Backtracking                     133                     1          3       30.521322       4.4824933                                                           
 Model                            133         83                                                            -1.8986597                              1_GWF-(58762)
 Backtracking                     134                     1          3       30.479400       4.5077272                                                           
 Model                            134         86                                                            -1.8971651                              1_GWF-(58762)
 Backtracking                     135                     1          3       30.438994       4.5329066                                                           
 Model                            135         81                                                            -1.8955452                              1_GWF-(58762)
 Backtracking                     136                     1          3       30.396929       4.5580297                                                           
 Model                            136         85                                                            -1.8940079                              1_GWF-(58762)
 Backtracking                     137                     1          3       30.355920       4.5830974                                                           
 Model                            137         97                                                            -1.8925290                              1_GWF-(58762)
 Backtracking                     138                     1          3       30.316132       4.6081106                                                           
 Model                            138         90                                                            -1.8909332                              1_GWF-(58762)
 Backtracking                     139                     1          3       30.273626       4.6330666                                                           
 Model                            139         89                                                            -1.8894365                              1_GWF-(58762)
 Backtracking                     140                     1          3       30.234393       4.6579684                                                           
 Model                            140         97                                                            -1.8878700                              1_GWF-(58762)
 Backtracking                     141                     1          3       30.193075       4.6828139                                                           
 Model                            141         72                                                            -1.8878056                              1_GWF-(58762)
 Backtracking                     142                     1          3       30.168766       4.7076195                                                           
 Model                            142         83                                                            -1.8847917                              1_GWF-(58762)
 Backtracking                     143                     1          3       30.111164       4.7323525                                                           
 Model                            143         82                                                            -1.8832636                              1_GWF-(58762)
 Backtracking                     144                     1          3       30.070556       4.7570295                                                           
 Model                            144         88                                                            -1.8817496                              1_GWF-(58762)
 Backtracking                     145                     1          3       30.030799       4.7816511                                                           
 Model                            145         83                                                            -1.8801976                              1_GWF-(58762)
 Backtracking                     146                     1          3       29.989319       4.8062155                                                           
 Model                            146         95                                                            -1.8786579                              1_GWF-(58762)
 Backtracking                     147                     1          3       29.948966       4.8307238                                                           
 Model                            147         69                                                            -1.8777555                              1_GWF-(58762)
 Backtracking                     148                     1          3       29.923521       4.8551904                                                           
 Model                            148         69                                                            -1.8766575                              1_GWF-(58762)
 Backtracking                     149                     1          3       29.883738       4.8796012                                                           
 Model                            149         85                                                            -1.8741359                              1_GWF-(58762)
 Backtracking                     150                     1          2       29.828045       5.1233098                                                           
 Model                            150         78                                                            -1.8588187                              1_GWF-(58762)
 Backtracking                     151                     1          2       29.568565       5.3626617                                                           
 Model                            151         90                                                            -1.8436795                              1_GWF-(58762)
 Backtracking                     152                     1          2       29.312441       5.5976277                                                           
 Model                            152         86                                                            -1.8286781                              1_GWF-(58762)
 Backtracking                     153                     1          2       29.057644       5.8281797                                                           
 Model                            153         83                                                            -1.8137544                              1_GWF-(58762)
 Backtracking                     154                     1          2       28.804976       6.0543137                                                           
 Model                            154         88                                                            -1.7989793                              1_GWF-(58762)
 Backtracking                     155                     1          2       28.555195       6.2760455                                                           
 Model                            155         84                                                            -1.7843065                              1_GWF-(58762)
 Backtracking                     156                     1          2       28.306567       6.4933837                                                           
 Model                            156         69                                                            -1.7707026                              1_GWF-(58762)
 Backtracking                     157                     1          2       28.076039       6.7065123                                                           
 Model                            157         83                                                            -1.7553120                              1_GWF-(58762)
 Backtracking                     158                     1          2       27.816734       6.9151554                                                           
 Model                            158         87                                                            -1.7410052                              1_GWF-(58762)
 Backtracking                     159                     1          2       27.575298       7.1195069                                                           
 Model                            159         65                                                            -1.7281462                              1_GWF-(58762)
 Backtracking                     160                     1          2       27.345898       7.3197056                                                           
 Model                            160         85                                                            -1.7127095                              1_GWF-(58762)
 Backtracking                     161                     1          2       27.097407       7.5155830                                                           
 Model                            161         84                                                            -1.6987408                              1_GWF-(58762)
 Backtracking                     162                     1          2       26.862046       7.7072953                                                           
 Model                            162         83                                                            -1.6848762                              1_GWF-(58762)
 Backtracking                     163                     1          2       26.628399       7.8948859                                                           
 Model                            163         69                                                            -1.6716646                              1_GWF-(58762)
 Backtracking                     164                     1          2       26.410642       8.0785410                                                           
 Model                            164         80                                                            -1.6574553                              1_GWF-(58762)
 Backtracking                     165                     1          2       26.166017       8.2580213                                                           
 Model                            165         86                                                            -1.6439648                              1_GWF-(58762)
 Backtracking                     166                     1          2       25.939288       8.4335363                                                           
 Model                            166         74                                                            -1.6316889                              1_GWF-(58762)
 Backtracking                     167                     1          2       25.727607       8.6052666                                                           
 Model                            167         75                                                            -1.6188479                              1_GWF-(58762)
 Backtracking                     168                     1          2       25.505679       8.7731403                                                           
 Model                            168         82                                                            -1.6039840                              1_GWF-(58762)
 Backtracking                     169                     1          2       25.266977       8.9370220                                                           
 Model                            169         84                                                            -1.5908847                              1_GWF-(58762)
 Backtracking                     170                     1          2       25.046990       9.0971318                                                           
 Model                            170         85                                                            -1.5779463                              1_GWF-(58762)
 Backtracking                     171                     1          2       24.829640       9.2535280                                                           
 Model                            171         83                                                            -1.5650139                              1_GWF-(58762)
 Backtracking                     172                     1          2       24.613535       9.4062554                                                           
 Model                            172         84                                                            -1.5522247                              1_GWF-(58762)
 Backtracking                     173                     1          2       24.398672       9.5553586                                                           
 Model                            173         86                                                            -1.5395551                              1_GWF-(58762)
 Backtracking                     174                     1          2       24.186183       9.7008935                                                           
 Model                            174         85                                                            -1.5269587                              1_GWF-(58762)
 Backtracking                     175                     1          2       23.975521       9.8429104                                                           
 Model                            175         92                                                            -1.5144962                              1_GWF-(58762)
 Backtracking                     176                     1          2       23.766444       9.9814571                                                           
 Model                            176         87                                                            -1.5021126                              1_GWF-(58762)
 Backtracking                     177                     1          2       23.559345       10.116585                                                           
 Model                            177         87                                                            -1.4898411                              1_GWF-(58762)
 Backtracking                     178                     1          2       23.353920       10.248343                                                           
 Model                            178         77                                                            -1.4783235                              1_GWF-(58762)
 Backtracking                     179                     1          2       23.162547       10.376901                                                           
 Model                            179         86                                                            -1.4655614                              1_GWF-(58762)
 Backtracking                     180                     1          2       22.948375       10.502063                                                           
 Model                            180         79                                                            -1.4535588                              1_GWF-(58762)
 Backtracking                     181                     1          2       22.748536       10.624003                                                           
 Model                            181         70                                                            -1.4423968                              1_GWF-(58762)
 Backtracking                     182                     1          2       22.561514       10.742879                                                           
 Model                            182         80                                                            -1.4298576                              1_GWF-(58762)
 Backtracking                     183                     1          2       22.352399       10.858501                                                           
 Model                            183         80                                                            -1.4181686                              1_GWF-(58762)
 Backtracking                     184                     1          2       22.157721       10.971042                                                           
 Model                            184         84                                                            -1.4066010                              1_GWF-(58762)
 Backtracking                     185                     1          2       21.964572       11.080549                                                           
 Model                            185         86                                                            -1.3950894                              1_GWF-(58762)
 Backtracking                     186                     1          2       21.772883       11.187063                                                           
 Model                            186         90                                                            -1.3836547                              1_GWF-(58762)
 Backtracking                     187                     1          2       21.582901       11.290632                                                           
 Model                            187         84                                                            -1.3723412                              1_GWF-(58762)
 Backtracking                     188                     1          2       21.393918       11.391293                                                           
 Model                            188         88                                                            -1.3611196                              1_GWF-(58762)
 Backtracking                     189                     1          2       21.207509       11.489100                                                           
 Model                            189         86                                                            -1.3499468                              1_GWF-(58762)
 Backtracking                     190                     1          2       21.022294       11.584093                                                           
 Model                            190         71                                                            -1.3397839                              1_GWF-(58762)
 Backtracking                     191                     1          2       20.851154       11.676439                                                           
 Model                            191         84                                                            -1.3279858                              1_GWF-(58762)
 Backtracking                     192                     1          2       20.656581       11.765930                                                           
 Model                            192         89                                                            -1.3170622                              1_GWF-(58762)
 Backtracking                     193                     1          2       20.476181       11.852736                                                           
 Model                            193         86                                                            -1.3062849                              1_GWF-(58762)
 Backtracking                     194                     1          2       20.297201       11.936897                                                           
 Model                            194         87                                                            -1.2955741                              1_GWF-(58762)
 Backtracking                     195                     1          2       20.119881       12.018454                                                           
 Model                            195         81                                                            -1.2849901                              1_GWF-(58762)
 Backtracking                     196                     1          2       19.944490       12.097453                                                           
 Model                            196         87                                                            -1.2744405                              1_GWF-(58762)
 Backtracking                     197                     1          2       19.769572       12.173924                                                           
 Model                            197        103                                                            -1.2639877                              1_GWF-(58762)
 Backtracking                     198                     1          2       19.596564       12.247910                                                           
 Model                            198         85                                                            -1.2539001                              1_GWF-(58762)
 Backtracking                     199                     1          2       19.428794       12.319489                                                           
 Model                            199         85                                                            -1.2433407                              1_GWF-(58762)
 Backtracking                     200                     1          2       19.255527       12.388627                                                           
 Model                            200         85                                                            -1.2331651                              1_GWF-(58762)
 Backtracking                     201                     1          2       19.087000       12.455398                                                           
 Model                            201         70                                                            -1.2235794                              1_GWF-(58762)
 Backtracking                     202                     1          2       18.930351       12.519943                                                           
 Model                            202         80                                                            -1.2130067                              1_GWF-(58762)
 Backtracking                     203                     1          1       18.754145       13.141651                                                           
 Model                            203         74                                                            -1.1147610                              1_GWF-(58762)
 Backtracking                     204                     1          1       17.218258       13.548135                                                           
 Model                            204         73                                                            -1.0229572                              1_GWF-(58762)
 Backtracking                     205                     1          1       15.795393       13.772026                                                           
 Model                            205         76                                                           -0.93883607                              1_GWF-(58762)
 Backtracking                     206                     1          1       14.490436       13.843260                                                           
 Model                            206         71                                                           -0.86186155                              1_GWF-(58762)
 Backtracking                     207                     0          0       13.294151       13.294151                       *                                   
 Model                            207         73                                                           -0.15412240                              1_GWF-(58762)
 Backtracking                     208                     0          0       2.3871446       2.3871446                       *                                   
 Model                            208         60                                                       -2.75223244E-02                              1_GWF-(58762)
 Backtracking                     209                     0          0      0.42879711      0.42879711                       *                                   
 Model                            209         32                                                       -4.59655008E-03                              1_GWF-(58762)
 Backtracking                     210                     0          0  7.92687638E-02  7.92687638E-02                       *                                   
 Model                            210         52                                                       -1.21293924E-03                              1_GWF-(58763)
 Backtracking                     211                     0          0  4.51418552E-03  4.51418552E-03                       *                                   
 Model                            211          2                                                        1.31898731E-05       *                       1_GWF-(6395)
 ----------------------------------------------------------------------------------------------------------------------------------------------------------------


 211 CALLS TO NUMERICAL SOLUTION IN TIME STEP 1 STRESS PERIOD 1
 17842 TOTAL ITERATIONS

 MEMORY MANAGER TOTAL STORAGE BY DATA TYPE, IN MEGABYTES
 -------------------------------
                    ALLOCATED   
 DATA TYPE           MEMORY     
 -------------------------------
 Character        1.04880000E-02
 Logical          4.80000000E-05
 Integer          27.969996     
 Real             67.652016     
 -------------------------------
 Total            95.632548     
 Virtual          0.0000000     
 -------------------------------


 
 Run end date and time (yyyy/mm/dd hh:mm:ss): 2026/02/12 10:44:59
 Elapsed run time: 51.715 Seconds
 Normal termination of simulation.
