                                   MODFLOW 6
                U.S. GEOLOGICAL SURVEY MODULAR HYDROLOGIC MODEL
                          GROUNDWATER FLOW MODEL (GWF)
                            VERSION 6.6.0 12/20/2024

   MODFLOW 6 compiled Dec 31 2024 17:10:16 with Intel(R) Fortran Intel(R) 64
   Compiler Classic for applications running on Intel(R) 64, Version 2021.7.0
                             Build 20220726_000000

This software has been approved for release by the U.S. Geological 
Survey (USGS). Although the software has been subjected to rigorous 
review, the USGS reserves the right to update the software as needed 
pursuant to further analysis and review. No warranty, expressed or 
implied, is made by the USGS or the U.S. Government as to the 
functionality of the software and related material nor shall the 
fact of release constitute any such warranty. Furthermore, the 
software is released on condition that neither the USGS nor the U.S. 
Government shall be held liable for any damages resulting from its 
authorized or unauthorized use. Also refer to the USGS Water 
Resources Software User Rights Notice for complete use, copyright, 
and distribution information.


As a work of the United States Government, this USGS product is 
in the public domain within the United States. You can copy, 
modify, distribute, and perform the work, even for commercial 
purposes, all without asking permission. Additionally, USGS 
waives copyright and related rights in the work worldwide 
through CC0 1.0 Universal Public Domain Dedication 
(https://creativecommons.org/publicdomain/zero/1.0/).

The following GNU Lesser General Public License (LGPL) libraries
are used in this USGS product:

    SPARSKIT version 2.0
      ilut, luson, and qsplit 
      (https://www-users.cse.umn.edu/~saad/software/SPARSKIT/)

    RCM - Reverse Cuthill McKee Ordering
      (https://people.math.sc.edu/Burkardt/f_src/rcm/rcm.html)

    BLAS - Basic Linear Algebra Subprograms Level 1
      (https://people.math.sc.edu/Burkardt/f_src/blas1_d/blas1_d.html)

    SPARSEKIT - Sparse Matrix Utility Package
      amux, dperm, dvperm, rperm, and cperm
      (https://people.sc.fsu.edu/~jburkardt/f77_src/sparsekit/sparsekit.html)

The following BSD-3 License libraries are used in this USGS product:

    Modern Fortran DAG Library
      Copyright (c) 2018, Jacob Williams
      All rights reserved.
      (https://github.com/jacobwilliams/daglib)

MODFLOW 6 compiler options: /O2 /heap-arrays:0 /fpe:0 /traceback /nologo /fpp
/c /module:win64\mod_mf6\ /object:win64\obj_mf6\

System command used to initiate simulation:
mf6

MODFLOW was compiled using uniform precision.

Real Variables
  KIND: 8
  TINY (smallest non-zero value):    2.225074-308
  HUGE (largest value):    1.797693+308
  PRECISION: 15
  SIZE IN BITS: 64

Integer Variables
  KIND: 4
  HUGE (largest value): 2147483647
  SIZE IN BITS: 32

Long Integer Variables
  KIND: 8
  HUGE (largest value): 9223372036854775807
  SIZE IN BITS: 64

Logical Variables
  KIND: 4
  SIZE IN BITS: 32
 
 NAMEFILE OPTIONS:
    FLOWS WILL BE SAVED TO BUDGET FILE SPECIFIED IN OUTPUT CONTROL
 END NAMEFILE OPTIONS:

 DISU -- UNSTRUCTURED GRID DISCRETIZATION PACKAGE, VERSION 2 : 3/27/2014 - INPUT READ FROM MEMPATH: __INPUT__/DISU_MODEL/DISU                         


 Setting Discretization Options
    Model length unit [0=UND, 1=FEET, 2=METERS, 3=CENTIMETERS] set as 2
    VERTICAL_OFFSET_TOLERANCE = .000000000000000
 End Setting Discretization Options

 Setting Discretization Dimensions
    NODES = 92000
    NJA = 604534
    NVERT = 368000
 End Setting Discretization Dimensions

 Setting Discretization Griddata
    TOP set from input file
    BOT set from input file
    AREA set from input file
 End Setting Discretization Griddata

 Setting Discretization Connectivity
    IAC set from input file
    JA set from input file
    IHC set from input file
    CL12 set from input file
    HWVA set from input file
    ANGLDEGX set from input file
 End Setting Discretization Connectivity

 Discretization Vertex data loaded
 Discretization Cell2d data loaded

 NPF -- NODE PROPERTY FLOW PACKAGE, VERSION 1, 3/30/2015 INPUT READ FROM MEMPATH: __INPUT__/DISU_MODEL/NPF                          


 IC -- Initial Conditions Package, Version 8, 3/28/2015 input read from mempath: __INPUT__/DISU_MODEL/IC                           


 Setting NPF Options
    Cell-by-cell flow information will be saved to binary file whenever ICBCFL is not zero.
    Specific discharge will be calculated at cell centers and written to DATA-SPDIS in budget file when requested.
 End Setting NPF Options

 Setting NPF Griddata
    ICELLTYPE set from input file
    K set from input file
    K33 not provided.  Setting K33 = K.
    K22 not provided.  Setting K22 = K.
 End Setting NPF Griddata


 WEL   -- WEL PACKAGE, VERSION 8, 2/22/2014 INPUT READ FROM MEMPATH: __INPUT__/DISU_MODEL/WELL_CASEA                   

 PROCESSING WEL BASE OPTIONS
    FLOWS WILL BE SAVED TO BUDGET FILE SPECIFIED IN OUTPUT CONTROL
 END OF WEL BASE OPTIONS

 PROCESSING WEL OPTIONS
 END OF WEL OPTIONS

 PROCESSING WEL BASE DIMENSIONS
    MAXBOUND =   72657
 END OF WEL BASE DIMENSIONS

 RCH   -- RCH PACKAGE, VERSION 8, 2/22/2014 INPUT READ FROM MEMPATH: __INPUT__/DISU_MODEL/RCH                          

 PROCESSING RCH BASE OPTIONS
    FLOWS WILL BE SAVED TO BUDGET FILE SPECIFIED IN OUTPUT CONTROL
    RCH FLOWS WILL BE PRINTED TO LISTING FILE.
 END OF RCH BASE OPTIONS

 PROCESSING RCH OPTIONS
    RECHARGE WILL BE APPLIED TO SPECIFIED CELL.
 END OF RCH OPTIONS

 PROCESSING RCH BASE DIMENSIONS
    MAXBOUND =   18550
 END OF RCH BASE DIMENSIONS

 EVT   -- EVT PACKAGE, VERSION 8, 2/22/2014 INPUT READ FROM MEMPATH: __INPUT__/DISU_MODEL/EVT                          

 PROCESSING EVT BASE OPTIONS
    FLOWS WILL BE SAVED TO BUDGET FILE SPECIFIED IN OUTPUT CONTROL
 END OF EVT BASE OPTIONS

 PROCESSING EVT OPTIONS
 END OF EVT OPTIONS

 PROCESSING EVT BASE DIMENSIONS
    MAXBOUND =   17861
 END OF EVT BASE DIMENSIONS

 PROCESSING EVT DIMENSIONS
    NSEG = 1
 END OF EVT DIMENSIONS

 CHD   -- CHD PACKAGE, VERSION 8, 2/22/2014 INPUT READ FROM MEMPATH: __INPUT__/DISU_MODEL/CHD                          

 PROCESSING CHD BASE OPTIONS
    FLOWS WILL BE SAVED TO BUDGET FILE SPECIFIED IN OUTPUT CONTROL
 END OF CHD BASE OPTIONS

 PROCESSING CHD BASE DIMENSIONS
    MAXBOUND =    2662
 END OF CHD BASE DIMENSIONS
    STRT set from input file
    BINARY GRID INFORMATION WILL BE WRITTEN TO:
      UNIT NUMBER: 1016
      FILE NAME: DISU_model.disu.grb

 OPENED DISU_model.disu.grb
 FILE TYPE:DATA(BINARY)   UNIT 1016   STATUS:REPLACE             
 FORMAT:UNFORMATTED            ACCESS:STREAM              
 ACTION:READWRITE           

      THE LAST TIME STEP WILL BE PRINTED
      THE LAST TIME STEP WILL BE PRINTED
 # File generated by Flopy version 3.9.1 on 01/21/2026 at 07:07:06.

 PROCESSING OC OPTIONS

    BUDGET INFORMATION WILL BE WRITTEN TO:
      UNIT NUMBER: 1017
      FILE NAME: quadtree_caseA.cbc

 OPENED quadtree_caseA.cbc
 FILE TYPE:DATA(BINARY)   UNIT 1017   STATUS:REPLACE             
 FORMAT:UNFORMATTED            ACCESS:STREAM              
 ACTION:READWRITE           

    HEAD INFORMATION WILL BE WRITTEN TO:
      UNIT NUMBER: 1018
      FILE NAME: quadtree_caseA.hds

 OPENED quadtree_caseA.hds
 FILE TYPE:DATA(BINARY)   UNIT 1018   STATUS:REPLACE             
 FORMAT:UNFORMATTED            ACCESS:STREAM              
 ACTION:READWRITE           

 END OF OC OPTIONS

start timestep kper="1" kstp="1" mode="normal"


 BEGIN READING OUTPUT CONTROL FOR STRESS PERIOD 1
      THE LAST TIME STEP WILL BE SAVED
      THE LAST TIME STEP WILL BE SAVED
      THE LAST TIME STEP WILL BE PRINTED

 END READING OUTPUT CONTROL FOR STRESS PERIOD 1
 UBDSV1 SAVING     FLOW-JA-FACE ON UNIT   1017 AT TIME STEP      1, STRESS PERIOD      1
 UBDSV06 SAVING       DATA-SPDIS IN MODEL DISU_MODEL       PACKAGE NPF             CONNECTED TO MODEL DISU_MODEL       PACKAGE NPF              ON UNIT   1017 AT TIME STEP      1, STRESS PERIOD      1
 UBDSV06 SAVING              WEL IN MODEL DISU_MODEL       PACKAGE DISU_MODEL      CONNECTED TO MODEL DISU_MODEL       PACKAGE WELL_CASEA       ON UNIT   1017 AT TIME STEP      1, STRESS PERIOD      1
 UBDSV06 SAVING              RCH IN MODEL DISU_MODEL       PACKAGE DISU_MODEL      CONNECTED TO MODEL DISU_MODEL       PACKAGE RCH              ON UNIT   1017 AT TIME STEP      1, STRESS PERIOD      1
 UBDSV06 SAVING              EVT IN MODEL DISU_MODEL       PACKAGE DISU_MODEL      CONNECTED TO MODEL DISU_MODEL       PACKAGE EVT              ON UNIT   1017 AT TIME STEP      1, STRESS PERIOD      1
 UBDSV06 SAVING              CHD IN MODEL DISU_MODEL       PACKAGE DISU_MODEL      CONNECTED TO MODEL DISU_MODEL       PACKAGE CHD              ON UNIT   1017 AT TIME STEP      1, STRESS PERIOD      1

 RCH PACKAGE (RCH) FLOW RATES   PERIOD      1   STEP        1
 -----------------------------------------------
   NUMBER   CELLID                    RATE      
 -----------------------------------------------
     1      (1)                   0.0000000     
     2      (2)                   0.0000000     
     3      (3)                   0.0000000     
     4      (4)                   0.0000000     
     5      (5)                   0.0000000     
     6      (6)                   0.0000000     
     7      (7)                   0.0000000     
     8      (8)                   0.0000000     
     9      (9)                   0.0000000     
     10     (10)                  0.0000000     
     11     (11)                  0.0000000     
     12     (12)                  0.0000000     
     13     (13)                  0.0000000     
     14     (14)                  0.0000000     
     15     (15)                  0.0000000     
     16     (16)                  0.0000000     
     17     (17)                  0.0000000     
     18     (18)                  0.0000000     
     19     (19)                  0.0000000     
     20     (20)                  0.0000000     
     21     (21)                  0.0000000     
     22     (22)                  0.0000000     
     23     (23)                  0.0000000     
     24     (24)                  0.0000000     
     25     (25)                  0.0000000     
     26     (26)                  0.0000000     
     27     (27)                  0.0000000     
     28     (28)                  0.0000000     
     29     (29)                  0.0000000     
     30     (30)                  0.0000000     
     31     (31)                  2.43042904E-02
     32     (32)                  0.0000000     
     33     (33)                  0.0000000     
     34     (34)                  2.50085915E-02
     35     (35)                  0.0000000     
     36     (36)                  0.0000000     
     37     (37)                  0.0000000     
     38     (38)                  0.0000000     
     39     (39)                  0.0000000     
     40     (40)                  0.0000000     
     41     (41)                  0.0000000     
     42     (42)                  0.0000000     
     43     (43)                  0.0000000     
     44     (44)                  0.0000000     
     45     (45)                  0.0000000     
     46     (46)                  0.0000000     
     47     (47)                  0.0000000     
     48     (48)                  0.0000000     
     49     (49)                  0.0000000     
     50     (50)                  0.0000000     
     51     (51)                  0.0000000     
     52     (52)                  0.0000000     
     53     (53)                  0.0000000     
     54     (54)                  0.0000000     
     55     (55)                  0.0000000     
     56     (56)                  0.0000000     
     57     (57)                  0.0000000     
     58     (58)                  0.0000000     
     59     (59)                  0.0000000     
     60     (60)                  0.0000000     
     61     (61)                  0.0000000     
     62     (62)                  0.0000000     
     63     (63)                  0.0000000     
     64     (64)                  0.0000000     
     65     (65)                  0.0000000     
     66     (66)                  0.0000000     
     67     (67)                  0.0000000     
     68     (68)                  0.0000000     
     69     (69)                  0.0000000     
     70     (70)                  0.0000000     
     71     (71)                  0.0000000     
     72     (72)                  0.0000000     
     73     (73)                  0.0000000     
     74     (74)                  2.41252348E-02
     75     (75)                  2.50459953E-02
     76     (76)                  2.45402556E-02
     77     (77)                  2.40608880E-02
     78     (78)                  2.44375061E-02
     79     (79)                  2.44736534E-02
     80     (80)                  2.48584441E-02
     81     (81)                  2.51806438E-02
     82     (82)                  2.62826196E-02
     83     (83)                  2.56971349E-02
     84     (84)                  2.67383120E-02
     85     (85)                  2.74339958E-02
     86     (86)                  0.0000000     
     87     (87)                  2.78829543E-02
     88     (88)                  2.90191818E-02
     89     (89)                  0.0000000     
     90     (90)                  0.0000000     
     91     (91)                  3.00774369E-02
     92     (92)                  0.0000000     
     93     (93)                  0.0000000     
     94     (94)                  0.0000000     
     95     (95)                  0.0000000     
     96     (96)                  0.0000000     
     97     (97)                  0.0000000     
     98     (98)                  0.0000000     
     99     (99)                  0.0000000     
    100     (100)                 0.0000000     
    101     (101)                 0.0000000     
    102     (102)                 0.0000000     
    103     (103)                 0.0000000     
    104     (104)                 0.0000000     
    105     (105)                 0.0000000     
    106     (106)                 0.0000000     
    107     (107)                 0.0000000     
    108     (108)                 0.0000000     
    109     (109)                 0.0000000     
    110     (110)                 0.0000000     
    111     (111)                 0.0000000     
    112     (112)                 0.0000000     
    113     (113)                 0.0000000     
    114     (114)                 0.0000000     
    115     (115)                 0.0000000     
    116     (116)                 0.0000000     
    117     (117)                 0.0000000     
    118     (118)                 0.0000000     
    119     (119)                 0.0000000     
    120     (120)                 0.0000000     
    121     (121)                 0.0000000     
    122     (122)                 0.0000000     
    123     (123)                 0.0000000     
    124     (124)                 0.0000000     
    125     (125)                 0.0000000     
    126     (126)                 0.0000000     
    127     (127)                 3.40127910E-02
    128     (128)                 0.0000000     
    129     (129)                 0.0000000     
    130     (130)                 3.40142245E-02
    131     (131)                 3.38983684E-02
    132     (132)                 0.0000000     
    133     (133)                 0.0000000     
    134     (134)                 3.38147777E-02
    135     (135)                 3.36734835E-02
    136     (136)                 0.0000000     
    137     (137)                 0.0000000     
    138     (138)                 0.0000000     
    139     (139)                 0.0000000     
    140     (140)                 0.0000000     
    141     (141)                 0.0000000     
    142     (142)                 0.0000000     
    143     (143)                 0.0000000     
    144     (144)                 0.0000000     
    145     (145)                 0.0000000     
    146     (146)                 0.0000000     
    147     (147)                 3.11460267E-02
    148     (148)                 0.0000000     
    149     (149)                 0.0000000     
    150     (150)                 3.03407685E-02
    151     (151)                 2.94407517E-02
    152     (152)                 2.76020987E-02
    153     (153)                 2.66016133E-02
    154     (154)                 2.84921139E-02
    155     (155)                 2.75797382E-02
    156     (156)                 2.57819714E-02
    157     (157)                 2.52875755E-02
    158     (158)                 2.68268380E-02
    159     (159)                 2.63696872E-02
    160     (160)                 2.52213037E-02
    161     (161)                 2.55961911E-02
    162     (162)                 2.63069177E-02
    163     (163)                 2.67665954E-02
    164     (164)                 2.64406069E-02
    165     (165)                 2.74419820E-02
    166     (166)                 2.74705918E-02
    167     (167)                 2.83841167E-02
    168     (168)                 2.85336783E-02
    169     (169)                 2.96084182E-02
    170     (170)                 2.93747993E-02
    171     (171)                 3.03453701E-02
    172     (172)                 3.06020524E-02
    173     (173)                 3.14848257E-02
    174     (174)                 3.12392445E-02
    175     (175)                 3.19853906E-02
    176     (176)                 3.22004699E-02
    177     (177)                 3.28473951E-02
    178     (178)                 3.26674348E-02
    179     (179)                 3.32454536E-02
    180     (180)                 0.0000000     
    181     (181)                 0.0000000     
    182     (182)                 3.37269598E-02
    183     (183)                 3.41201705E-02
    184     (184)                 0.0000000     
    185     (185)                 0.0000000     
    186     (186)                 3.44324756E-02
    187     (187)                 0.0000000     
    188     (188)                 0.0000000     
    189     (189)                 0.0000000     
    190     (190)                 3.48365939E-02
    191     (191)                 3.49357184E-02
    192     (192)                 0.0000000     
    193     (193)                 0.0000000     
    194     (194)                 3.49690179E-02
    195     (195)                 0.0000000     
    196     (196)                 0.0000000     
    197     (197)                 0.0000000     
    198     (198)                 0.0000000     
    199     (199)                 0.0000000     
    200     (200)                 0.0000000     
    201     (201)                 0.0000000     
    202     (202)                 0.0000000     
    203     (203)                 0.0000000     
    204     (204)                 0.0000000     
    205     (205)                 0.0000000     
    206     (206)                 0.0000000     
    207     (207)                 0.0000000     
    208     (208)                 0.0000000     
    209     (209)                 0.0000000     
    210     (210)                 0.0000000     
    211     (211)                 0.0000000     
    212     (212)                 0.0000000     
    213     (213)                 0.0000000     
    214     (214)                 0.0000000     
    215     (215)                 3.35839200E-02
    216     (216)                 0.0000000     
    217     (217)                 0.0000000     
    218     (218)                 3.35863696E-02
    219     (219)                 3.36028126E-02
    220     (220)                 0.0000000     
    221     (221)                 3.37811586E-02
    222     (222)                 3.36399092E-02
    223     (223)                 3.37001618E-02
    224     (224)                 3.38459420E-02
    225     (225)                 3.39182756E-02
    226     (226)                 3.37815428E-02
    227     (227)                 3.38778262E-02
    228     (228)                 3.39897237E-02
    229     (229)                 3.40499519E-02
    230     (230)                 3.39795254E-02
    231     (231)                 3.40751730E-02
    232     (232)                 3.40877188E-02
    233     (233)                 3.40148442E-02
    234     (234)                 3.41526306E-02
    235     (235)                 3.41263653E-02
    236     (236)                 3.39741270E-02
    237     (237)                 3.38800525E-02
    238     (238)                 3.41323033E-02
    239     (239)                 3.40896300E-02
    240     (240)                 3.37237677E-02
    241     (241)                 3.34969591E-02
    242     (242)                 3.39909680E-02
    243     (243)                 3.38300863E-02
    244     (244)                 3.31916101E-02
    245     (245)                 3.28858470E-02
    246     (246)                 3.36015763E-02
    247     (247)                 3.33872095E-02
    248     (248)                 3.24035124E-02
    249     (249)                 3.18216092E-02
    250     (250)                 3.30127876E-02
    251     (251)                 3.25584153E-02
    252     (252)                 3.11419791E-02
    253     (253)                 3.03797226E-02
    254     (254)                 3.20269012E-02
    255     (255)                 3.14308790E-02
    256     (256)                 2.95732315E-02
    257     (257)                 2.87941522E-02
    258     (258)                 3.08004582E-02
    259     (259)                 3.01911296E-02
    260     (260)                 2.81481247E-02
    261     (261)                 2.77536915E-02
    262     (262)                 2.96848782E-02
    263     (263)                 2.93743413E-02
    264     (264)                 2.76977458E-02
    265     (265)                 2.81494367E-02
    266     (266)                 2.95146975E-02
    267     (267)                 2.97526369E-02
    268     (268)                 2.87516750E-02
    269     (269)                 2.95324505E-02
    270     (270)                 3.02229457E-02
    271     (271)                 3.08353775E-02
    272     (272)                 3.03782180E-02
    273     (273)                 3.12065355E-02
    274     (274)                 3.15020197E-02
    275     (275)                 3.21589214E-02
    276     (276)                 3.19699690E-02
    277     (277)                 3.26019214E-02
    278     (278)                 3.27688048E-02
    279     (279)                 3.32689774E-02
    280     (280)                 3.31864207E-02
    281     (281)                 3.36824403E-02
    282     (282)                 3.37428919E-02
    283     (283)                 3.41474363E-02
    284     (284)                 3.40955939E-02
    285     (285)                 3.44319699E-02
    286     (286)                 3.44854370E-02
    287     (287)                 3.47601801E-02
    288     (288)                 3.46969137E-02
    289     (289)                 3.48945343E-02
    290     (290)                 3.49744866E-02
    291     (291)                 3.51302997E-02
    292     (292)                 3.50275863E-02
    293     (293)                 3.50975680E-02
    294     (294)                 3.52285423E-02
    295     (295)                 3.52691478E-02
    296     (296)                 3.51049976E-02
    297     (297)                 3.50498835E-02
    298     (298)                 3.52512615E-02
    299     (299)                 3.51736489E-02
    300     (300)                 3.49324451E-02
    301     (301)                 0.0000000     
    302     (302)                 3.50353822E-02
    303     (303)                 3.48368634E-02
    304     (304)                 0.0000000     
    305     (305)                 0.0000000     
    306     (306)                 0.0000000     
    307     (307)                 0.0000000     
    308     (308)                 0.0000000     
    309     (309)                 0.0000000     
    310     (310)                 0.0000000     
    311     (311)                 0.0000000     
    312     (312)                 0.0000000     
    313     (313)                 0.0000000     
    314     (314)                 0.0000000     
    315     (315)                 0.0000000     
    316     (316)                 0.0000000     
    317     (317)                 0.0000000     
    318     (318)                 0.0000000     
    319     (319)                 0.0000000     
    320     (320)                 0.0000000     
    321     (321)                 0.0000000     
    322     (322)                 0.0000000     
    323     (323)                 0.0000000     
    324     (324)                 3.34942868E-02
    325     (325)                 0.0000000     
    326     (326)                 3.34879459E-02
    327     (327)                 3.35331036E-02
    328     (328)                 3.35370010E-02
    329     (329)                 3.35063461E-02
    330     (330)                 3.34860627E-02
    331     (331)                 3.35198952E-02
    332     (332)                 3.34976128E-02
    333     (333)                 3.34433487E-02
    334     (334)                 3.33959223E-02
    335     (335)                 3.34844290E-02
    336     (336)                 3.34916879E-02
    337     (337)                 3.33639190E-02
    338     (338)                 3.33590170E-02
    339     (339)                 3.35279325E-02
    340     (340)                 3.35966386E-02
    341     (341)                 3.33928212E-02
    342     (342)                 3.34699075E-02
    343     (343)                 3.36957380E-02
    344     (344)                 3.38181041E-02
    345     (345)                 3.35880240E-02
    346     (346)                 3.37387866E-02
    347     (347)                 3.39528441E-02
    348     (348)                 3.40870200E-02
    349     (349)                 3.39094509E-02
    350     (350)                 3.40851960E-02
    351     (351)                 3.42073512E-02
    352     (352)                 3.42308866E-02
    353     (353)                 3.42513075E-02
    354     (354)                 3.43272671E-02
    355     (355)                 3.42866126E-02
    356     (356)                 3.42985585E-02
    357     (357)                 3.44351455E-02
    358     (358)                 3.45038431E-02
    359     (359)                 3.42610169E-02
    360     (360)                 3.41701187E-02
    361     (361)                 3.45294360E-02
    362     (362)                 3.45105623E-02
    363     (363)                 3.40028622E-02
    364     (364)                 3.39065575E-02
    365     (365)                 3.44274022E-02
    366     (366)                 3.44309102E-02
    367     (367)                 3.36481890E-02
    368     (368)                 3.33321082E-02
    369     (369)                 3.42916903E-02
    370     (370)                 3.41179098E-02
    371     (371)                 3.29628387E-02
    372     (372)                 3.25510846E-02
    373     (373)                 3.39161647E-02
    374     (374)                 3.36955364E-02
    375     (375)                 3.21184574E-02
    376     (376)                 3.17025070E-02
    377     (377)                 3.34691584E-02
    378     (378)                 3.32559891E-02
    379     (379)                 3.13575924E-02
    380     (380)                 3.11449239E-02
    381     (381)                 3.30811119E-02
    382     (382)                 3.29719048E-02
    383     (383)                 3.13301028E-02
    384     (384)                 3.14881504E-02
    385     (385)                 3.31886666E-02
    386     (386)                 3.32627736E-02
    387     (387)                 3.18074442E-02
    388     (388)                 3.22293601E-02
    389     (389)                 3.34241792E-02
    390     (390)                 3.36480064E-02
    391     (391)                 3.26959348E-02
    392     (392)                 3.31638889E-02
    393     (393)                 3.39077878E-02
    394     (394)                 3.41815526E-02
    395     (395)                 3.35631651E-02
    396     (396)                 3.39647853E-02
    397     (397)                 3.44102117E-02
    398     (398)                 3.46669753E-02
    399     (399)                 3.43206325E-02
    400     (400)                 3.46283830E-02
    401     (401)                 3.49029948E-02
    402     (402)                 3.51128839E-02
    403     (403)                 3.48875279E-02
    404     (404)                 3.50981573E-02
    405     (405)                 3.52926209E-02
    406     (406)                 3.54390025E-02
    407     (407)                 3.52603052E-02
    408     (408)                 3.53735867E-02
    409     (409)                 3.55492373E-02
    410     (410)                 3.56206166E-02
    411     (411)                 3.54370044E-02
    412     (412)                 3.54488932E-02
    413     (413)                 3.56502574E-02
    414     (414)                 3.56349535E-02
    415     (415)                 3.54070298E-02
    416     (416)                 3.53089652E-02
    417     (417)                 3.55711873E-02
    418     (418)                 3.54553839E-02
    419     (419)                 3.51526628E-02
    420     (420)                 3.49375093E-02
    421     (421)                 3.52844877E-02
    422     (422)                 3.50569469E-02
    423     (423)                 0.0000000     
    424     (424)                 0.0000000     
    425     (425)                 3.47741186E-02
    426     (426)                 3.44480650E-02
    427     (427)                 0.0000000     
    428     (428)                 0.0000000     
    429     (429)                 0.0000000     
    430     (430)                 0.0000000     
    431     (431)                 0.0000000     
    432     (432)                 0.0000000     
    433     (433)                 0.0000000     
    434     (434)                 0.0000000     
    435     (435)                 0.0000000     
    436     (436)                 0.0000000     
    437     (437)                 0.0000000     
    438     (438)                 0.0000000     
    439     (439)                 0.0000000     
    440     (440)                 0.0000000     
    441     (441)                 0.0000000     
    442     (442)                 0.0000000     
    443     (443)                 0.0000000     
    444     (444)                 0.0000000     
    445     (445)                 0.0000000     
    446     (446)                 0.0000000     
    447     (447)                 0.0000000     
    448     (448)                 0.0000000     
    449     (449)                 0.0000000     
    450     (450)                 0.0000000     
    451     (451)                 0.0000000     
    452     (452)                 0.0000000     
    453     (453)                 0.0000000     
    454     (454)                 0.0000000     
    455     (455)                 0.0000000     
    456     (456)                 0.0000000     
    457     (457)                 0.0000000     
    458     (458)                 0.0000000     
    459     (459)                 0.0000000     
    460     (460)                 3.34855760E-02
    461     (461)                 0.0000000     
    462     (462)                 3.34890032E-02
    463     (463)                 3.34797120E-02
    464     (464)                 3.34308985E-02
    465     (465)                 3.34553061E-02
    466     (466)                 3.33739321E-02
    467     (467)                 3.33579151E-02
    468     (468)                 3.32817278E-02
    469     (469)                 3.32663295E-02
    470     (470)                 3.31570667E-02
    471     (471)                 3.32258350E-02
    472     (472)                 3.32057791E-02
    473     (473)                 3.30734479E-02
    474     (474)                 3.30355016E-02
    475     (475)                 3.32356358E-02
    476     (476)                 3.33211957E-02
    477     (477)                 3.30601607E-02
    478     (478)                 3.31545115E-02
    479     (479)                 3.34598161E-02
    480     (480)                 3.36414104E-02
    481     (481)                 3.33152438E-02
    482     (482)                 3.35300462E-02
    483     (483)                 3.38508527E-02
    484     (484)                 3.40709767E-02
    485     (485)                 3.37808331E-02
    486     (486)                 3.40476194E-02
    487     (487)                 3.42853185E-02
    488     (488)                 3.44155696E-02
    489     (489)                 3.43118981E-02
    490     (490)                 3.46182626E-02
    491     (491)                 3.45770476E-02
    492     (492)                 3.47034292E-02
    493     (493)                 3.47127069E-02
    494     (494)                 3.48963785E-02
    495     (495)                 3.47926074E-02
    496     (496)                 3.48214793E-02
    497     (497)                 3.50209128E-02
    498     (498)                 3.51471604E-02
    499     (499)                 3.48461057E-02
    500     (500)                 3.49482624E-02
    501     (501)                 3.52518356E-02
    502     (502)                 3.54481631E-02
    503     (503)                 3.49264479E-02
    504     (504)                 3.48925723E-02
    505     (505)                 3.55376661E-02
    506     (506)                 3.56356756E-02
    507     (507)                 3.48553163E-02
    508     (508)                 3.48222470E-02
    509     (509)                 3.57527235E-02
    510     (510)                 3.58948716E-02
    511     (511)                 3.47982624E-02
    512     (512)                 3.47841086E-02
    513     (513)                 3.60592776E-02
    514     (514)                 3.62297356E-02
    515     (515)                 3.47760562E-02
    516     (516)                 3.50154445E-02
    517     (517)                 3.63758377E-02
    518     (518)                 3.66952692E-02
    519     (519)                 3.49992218E-02
    520     (520)                 3.49912039E-02
    521     (521)                 3.66879127E-02
    522     (522)                 3.66041035E-02
    523     (523)                 3.49988237E-02
    524     (524)                 3.50301321E-02
    525     (525)                 3.64704711E-02
    526     (526)                 3.63250094E-02
    527     (527)                 3.50892294E-02
    528     (528)                 3.51342835E-02
    529     (529)                 3.61996039E-02
    530     (530)                 3.60723031E-02
    531     (531)                 3.52381450E-02
    532     (532)                 3.53543262E-02
    533     (533)                 3.60224493E-02
    534     (534)                 3.60080935E-02
    535     (535)                 3.54740410E-02
    536     (536)                 3.55889451E-02
    537     (537)                 3.60194453E-02
    538     (538)                 3.60455802E-02
    539     (539)                 3.56916583E-02
    540     (540)                 3.57758524E-02
    541     (541)                 3.60761664E-02
    542     (542)                 3.61021283E-02
    543     (543)                 3.58360751E-02
    544     (544)                 3.58674482E-02
    545     (545)                 3.61156810E-02
    546     (546)                 3.61100511E-02
    547     (547)                 3.58653476E-02
    548     (548)                 3.58251611E-02
    549     (549)                 3.60791023E-02
    550     (550)                 3.60170133E-02
    551     (551)                 3.57422117E-02
    552     (552)                 3.56119312E-02
    553     (553)                 3.59181220E-02
    554     (554)                 3.57770296E-02
    555     (555)                 3.54303772E-02
    556     (556)                 3.51951726E-02
    557     (557)                 3.55890600E-02
    558     (558)                 3.53547057E-02
    559     (559)                 3.49120311E-02
    560     (560)                 3.45784961E-02
    561     (561)                 3.50700994E-02
    562     (562)                 3.47391542E-02
    563     (563)                 3.42077034E-02
    564     (564)                 3.38184788E-02
    565     (565)                 3.43724370E-02
    566     (566)                 3.39878775E-02
    567     (567)                 0.0000000     
    568     (568)                 0.0000000     
    569     (569)                 3.36103697E-02
    570     (570)                 3.32692177E-02
    571     (571)                 0.0000000     
    572     (572)                 0.0000000     
    573     (573)                 3.29934938E-02
    574     (574)                 3.28064981E-02
    575     (575)                 0.0000000     
    576     (576)                 0.0000000     
    577     (577)                 3.27212802E-02
    578     (578)                 0.0000000     
    579     (579)                 0.0000000     
    580     (580)                 0.0000000     
    581     (581)                 0.0000000     
    582     (582)                 0.0000000     
    583     (583)                 0.0000000     
    584     (584)                 0.0000000     
    585     (585)                 0.0000000     
    586     (586)                 0.0000000     
    587     (587)                 0.0000000     
    588     (588)                 0.0000000     
    589     (589)                 0.0000000     
    590     (590)                 3.41824114E-02
    591     (591)                 0.0000000     
    592     (592)                 0.0000000     
    593     (593)                 3.44935875E-02
    594     (594)                 0.0000000     
    595     (595)                 0.0000000     
    596     (596)                 0.0000000     
    597     (597)                 0.0000000     
    598     (598)                 0.0000000     
    599     (599)                 0.0000000     
    600     (600)                 0.0000000     
    601     (601)                 0.0000000     
    602     (602)                 0.0000000     
    603     (603)                 3.23872984E-02
    604     (604)                 3.26189304E-02
    605     (605)                 3.34935652E-02
    606     (606)                 3.35008308E-02
    607     (607)                 3.35432875E-02
    608     (608)                 3.35245845E-02
    609     (609)                 3.34363776E-02
    610     (610)                 3.33191804E-02
    611     (611)                 3.34275329E-02
    612     (612)                 3.32725683E-02
    613     (613)                 3.31734280E-02
    614     (614)                 3.30275792E-02
    615     (615)                 3.30865921E-02
    616     (616)                 3.29021144E-02
    617     (617)                 3.29116215E-02
    618     (618)                 3.28551984E-02
    619     (619)                 3.27540772E-02
    620     (620)                 3.26761717E-02
    621     (621)                 3.28738694E-02
    622     (622)                 3.29775530E-02
    623     (623)                 3.26887195E-02
    624     (624)                 3.28024068E-02
    625     (625)                 3.31619317E-02
    626     (626)                 3.34119132E-02
    627     (627)                 3.30115322E-02
    628     (628)                 3.32977187E-02
    629     (629)                 3.37058906E-02
    630     (630)                 3.40206509E-02
    631     (631)                 3.36354058E-02
    632     (632)                 3.39979001E-02
    633     (633)                 3.43893560E-02
    634     (634)                 3.46935076E-02
    635     (635)                 3.44155108E-02
    636     (636)                 3.47702719E-02
    637     (637)                 3.49699790E-02
    638     (638)                 3.50829251E-02
    639     (639)                 3.50978434E-02
    640     (640)                 3.52367548E-02
    641     (641)                 3.52677959E-02
    642     (642)                 3.54595759E-02
    643     (643)                 3.55050396E-02
    644     (644)                 3.57565763E-02
    645     (645)                 3.56388803E-02
    646     (646)                 3.58179701E-02
    647     (647)                 3.60029921E-02
    648     (648)                 3.62590380E-02
    649     (649)                 3.61130353E-02
    650     (650)                 3.63302466E-02
    651     (651)                 3.66428600E-02
    652     (652)                 3.69629053E-02
    653     (653)                 3.65856574E-02
    654     (654)                 3.68838330E-02
    655     (655)                 3.73363308E-02
    656     (656)                 3.77662777E-02
    657     (657)                 3.72149693E-02
    658     (658)                 3.75478896E-02
    659     (659)                 3.82370359E-02
    660     (660)                 3.87050080E-02
    661     (661)                 3.80537539E-02
    662     (662)                 3.82012027E-02
    663     (663)                 3.92863910E-02
    664     (664)                 3.94969442E-02
    665     (665)                 3.82006783E-02
    666     (666)                 3.80505655E-02
    667     (667)                 3.95013340E-02
    668     (668)                 3.92965505E-02
    669     (669)                 3.77939401E-02
    670     (670)                 3.74944061E-02
    671     (671)                 3.89387847E-02
    672     (672)                 3.85121654E-02
    673     (673)                 3.72076699E-02
    674     (674)                 3.69292617E-02
    675     (675)                 3.80595282E-02
    676     (676)                 3.76871628E-02
    677     (677)                 3.67434041E-02
    678     (678)                 3.66128313E-02
    679     (679)                 3.73864317E-02
    680     (680)                 3.71567436E-02
    681     (681)                 3.65270942E-02
    682     (682)                 3.64732346E-02
    683     (683)                 3.69873921E-02
    684     (684)                 3.68640299E-02
    685     (685)                 3.64385454E-02
    686     (686)                 3.64117275E-02
    687     (687)                 3.67722521E-02
    688     (688)                 3.66991485E-02
    689     (689)                 3.63831045E-02
    690     (690)                 3.63443671E-02
    691     (691)                 3.66336637E-02
    692     (692)                 3.65663608E-02
    693     (693)                 3.62881546E-02
    694     (694)                 3.62076694E-02
    695     (695)                 3.64889712E-02
    696     (696)                 3.63939663E-02
    697     (697)                 3.60964582E-02
    698     (698)                 3.59484644E-02
    699     (699)                 3.62742966E-02
    700     (700)                 3.61234091E-02
    701     (701)                 3.57584348E-02
    702     (702)                 3.55281821E-02
    703     (703)                 3.59390630E-02
    704     (704)                 3.57142347E-02
    705     (705)                 3.52495214E-02
    706     (706)                 3.49275358E-02
    707     (707)                 3.54467512E-02
    708     (708)                 3.51394892E-02
    709     (709)                 3.45718626E-02
    710     (710)                 3.41992290E-02
    711     (711)                 3.48010709E-02
    712     (712)                 3.44467815E-02
    713     (713)                 3.38330806E-02
    714     (714)                 3.35011848E-02
    715     (715)                 3.40982092E-02
    716     (716)                 3.37810471E-02
    717     (717)                 3.32312667E-02
    718     (718)                 3.30457704E-02
    719     (719)                 3.35211129E-02
    720     (720)                 3.33395595E-02
    721     (721)                 3.29575737E-02
    722     (722)                 3.29682313E-02
    723     (723)                 3.32489030E-02
    724     (724)                 3.32512908E-02
    725     (725)                 3.30691643E-02
    726     (726)                 3.32449129E-02
    727     (727)                 3.33394296E-02
    728     (728)                 3.34994359E-02
    729     (729)                 3.34769827E-02
    730     (730)                 3.37470738E-02
    731     (731)                 3.37143223E-02
    732     (732)                 3.39670007E-02
    733     (733)                 3.40391354E-02
    734     (734)                 3.43402809E-02
    735     (735)                 3.42422640E-02
    736     (736)                 3.45277293E-02
    737     (737)                 3.46408807E-02
    738     (738)                 3.49341957E-02
    739     (739)                 3.48140073E-02
    740     (740)                 3.50944182E-02
    741     (741)                 0.0000000     
    742     (742)                 0.0000000     
    743     (743)                 0.0000000     
    744     (744)                 0.0000000     
    745     (745)                 0.0000000     
    746     (746)                 0.0000000     
    747     (747)                 0.0000000     
    748     (748)                 0.0000000     
    749     (749)                 0.0000000     
    750     (750)                 0.0000000     
    751     (751)                 0.0000000     
    752     (752)                 0.0000000     
    753     (753)                 3.21880747E-02
    754     (754)                 3.19222741E-02
    755     (755)                 3.23380500E-02
    756     (756)                 3.25050825E-02
    757     (757)                 3.27237229E-02
    758     (758)                 3.26427786E-02
    759     (759)                 3.28450306E-02
    760     (760)                 3.36102380E-02
    761     (761)                 3.35647666E-02
    762     (762)                 3.36984088E-02
    763     (763)                 3.36267522E-02
    764     (764)                 3.34348068E-02
    765     (765)                 3.32420347E-02
    766     (766)                 3.34654848E-02
    767     (767)                 3.32372682E-02
    768     (768)                 3.30159129E-02
    769     (769)                 3.27929636E-02
    770     (770)                 3.29738378E-02
    771     (771)                 3.27154143E-02
    772     (772)                 3.26131428E-02
    773     (773)                 3.25143018E-02
    774     (774)                 3.25066378E-02
    775     (775)                 3.23890002E-02
    776     (776)                 3.25213794E-02
    777     (777)                 3.26456431E-02
    778     (778)                 3.23923987E-02
    779     (779)                 3.25273679E-02
    780     (780)                 3.28796605E-02
    781     (781)                 3.32014483E-02
    782     (782)                 3.27848717E-02
    783     (783)                 3.31393350E-02
    784     (784)                 3.35813261E-02
    785     (785)                 3.40341826E-02
    786     (786)                 3.35917401E-02
    787     (787)                 3.40503437E-02
    788     (788)                 3.44529405E-02
    789     (789)                 3.48543465E-02
    790     (790)                 3.45101927E-02
    791     (791)                 3.49520638E-02
    792     (792)                 3.52284238E-02
    793     (793)                 3.54163109E-02
    794     (794)                 3.53661639E-02
    795     (795)                 3.57509831E-02
    796     (796)                 3.57332255E-02
    797     (797)                 3.60371086E-02
    798     (798)                 3.59536274E-02
    799     (799)                 3.63010691E-02
    800     (800)                 3.63413346E-02
    801     (801)                 3.66625057E-02
    802     (802)                 3.66524048E-02
    803     (803)                 3.70253649E-02
    804     (804)                 3.71200514E-02
    805     (805)                 3.75238152E-02
    806     (806)                 3.75401306E-02
    807     (807)                 3.80066848E-02
    808     (808)                 3.79917168E-02
    809     (809)                 3.85256102E-02
    810     (810)                 3.85434744E-02
    811     (811)                 3.91512357E-02
    812     (812)                 3.91051624E-02
    813     (813)                 3.98657340E-02
    814     (814)                 3.98064290E-02
    815     (815)                 4.06022214E-02
    816     (816)                 4.03025093E-02
    817     (817)                 4.05601487E-02
    818     (818)                 4.10911443E-02
    819     (819)                 4.13796215E-02
    820     (820)                 4.05679601E-02
    821     (821)                 4.03216581E-02
    822     (822)                 4.13898602E-02
    823     (823)                 4.11162596E-02
    824     (824)                 3.98868119E-02
    825     (825)                 3.93625510E-02
    826     (826)                 4.06297014E-02
    827     (827)                 4.00171805E-02
    828     (828)                 3.88081753E-02
    829     (829)                 3.83346061E-02
    830     (830)                 3.94129458E-02
    831     (831)                 3.88660407E-02
    832     (832)                 3.79419333E-02
    833     (833)                 3.76316788E-02
    834     (834)                 3.84048612E-02
    835     (835)                 3.80329052E-02
    836     (836)                 3.73933275E-02
    837     (837)                 3.72118475E-02
    838     (838)                 3.77403639E-02
    839     (839)                 3.75122823E-02
    840     (840)                 3.70718749E-02
    841     (841)                 3.69595512E-02
    842     (842)                 3.73331174E-02
    843     (843)                 3.71887528E-02
    844     (844)                 3.68629891E-02
    845     (845)                 3.67720509E-02
    846     (846)                 3.70670266E-02
    847     (847)                 3.69575228E-02
    848     (848)                 3.66778812E-02
    849     (849)                 3.65724542E-02
    850     (850)                 3.68510999E-02
    851     (851)                 3.67394401E-02
    852     (852)                 3.64482987E-02
    853     (853)                 3.62984987E-02
    854     (854)                 3.66147850E-02
    855     (855)                 3.64731619E-02
    856     (856)                 3.61224623E-02
    857     (857)                 3.59089049E-02
    858     (858)                 3.63060863E-02
    859     (859)                 3.61076483E-02
    860     (860)                 3.56572093E-02
    861     (861)                 3.53695857E-02
    862     (862)                 3.58756384E-02
    863     (863)                 3.56116132E-02
    864     (864)                 3.50535869E-02
    865     (865)                 3.47228964E-02
    866     (866)                 3.53220313E-02
    867     (867)                 3.50188979E-02
    868     (868)                 3.43969706E-02
    869     (869)                 3.40990638E-02
    870     (870)                 3.47194054E-02
    871     (871)                 3.44441885E-02
    872     (872)                 3.38526965E-02
    873     (873)                 3.36774086E-02
    874     (874)                 3.42142649E-02
    875     (875)                 3.40473667E-02
    876     (876)                 3.35851821E-02
    877     (877)                 3.35787778E-02
    878     (878)                 3.39548030E-02
    879     (879)                 3.39398953E-02
    880     (880)                 3.36523814E-02
    881     (881)                 3.37939921E-02
    882     (882)                 3.39983596E-02
    883     (883)                 3.41202179E-02
    884     (884)                 3.39884679E-02
    885     (885)                 3.42202416E-02
    886     (886)                 3.42923675E-02
    887     (887)                 3.45009703E-02
    888     (888)                 3.44751943E-02
    889     (889)                 3.47416162E-02
    890     (890)                 3.47331820E-02
    891     (891)                 3.49781143E-02
    892     (892)                 3.50104596E-02
    893     (893)                 3.52751534E-02
    894     (894)                 3.52271661E-02
    895     (895)                 3.54739415E-02
    896     (896)                 0.0000000     
    897     (897)                 0.0000000     
    898     (898)                 0.0000000     
    899     (899)                 0.0000000     
    900     (900)                 0.0000000     
    901     (901)                 0.0000000     
    902     (902)                 0.0000000     
    903     (903)                 0.0000000     
    904     (904)                 0.0000000     
    905     (905)                 0.0000000     
    906     (906)                 0.0000000     
    907     (907)                 2.70950975E-02
    908     (908)                 2.84948298E-02
    909     (909)                 0.0000000     
    910     (910)                 0.0000000     
    911     (911)                 2.96953364E-02
    912     (912)                 3.04323495E-02
    913     (913)                 0.0000000     
    914     (914)                 3.16251255E-02
    915     (915)                 3.12243488E-02
    916     (916)                 3.18565512E-02
    917     (917)                 3.21137676E-02
    918     (918)                 3.25154980E-02
    919     (919)                 3.23421903E-02
    920     (920)                 3.27232977E-02
    921     (921)                 3.28033125E-02
    922     (922)                 3.37995679E-02
    923     (923)                 3.29898121E-02
    924     (924)                 3.35967936E-02
    925     (925)                 3.38122040E-02
    926     (926)                 3.37164742E-02
    927     (927)                 3.39561041E-02
    928     (928)                 3.38398882E-02
    929     (929)                 3.35275957E-02
    930     (930)                 3.32689485E-02
    931     (931)                 3.36290757E-02
    932     (932)                 3.33474956E-02
    933     (933)                 3.29741079E-02
    934     (934)                 3.26863591E-02
    935     (935)                 3.30299957E-02
    936     (936)                 3.27219681E-02
    937     (937)                 3.24542136E-02
    938     (938)                 3.23228395E-02
    939     (939)                 3.24744915E-02
    940     (940)                 3.23350046E-02
    941     (941)                 3.23239734E-02
    942     (942)                 3.24689404E-02
    943     (943)                 3.23364206E-02
    944     (944)                 3.24895463E-02
    945     (945)                 3.27464876E-02
    946     (946)                 3.31279255E-02
    947     (947)                 3.27815143E-02
    948     (948)                 3.32065027E-02
    949     (949)                 3.36116640E-02
    950     (950)                 3.41030331E-02
    951     (951)                 3.36880727E-02
    952     (952)                 3.42013224E-02
    953     (953)                 3.45955386E-02
    954     (954)                 3.50695360E-02
    955     (955)                 3.47158250E-02
    956     (956)                 3.52118413E-02
    957     (957)                 3.55154280E-02
    958     (958)                 3.59322032E-02
    959     (959)                 3.56799340E-02
    960     (960)                 3.61192885E-02
    961     (961)                 3.61679540E-02
    962     (962)                 3.65491496E-02
    963     (963)                 3.63781088E-02
    964     (964)                 3.67827026E-02
    965     (965)                 3.69359697E-02
    966     (966)                 3.73464978E-02
    967     (967)                 3.71930239E-02
    968     (968)                 3.76267250E-02
    969     (969)                 3.79013111E-02
    970     (970)                 3.84089160E-02
    971     (971)                 3.82046230E-02
    972     (972)                 3.87318504E-02
    973     (973)                 3.89881598E-02
    974     (974)                 3.96388083E-02
    975     (975)                 3.93276327E-02
    976     (976)                 3.99908629E-02
    977     (977)                 4.05235236E-02
    978     (978)                 4.11376027E-02
    979     (979)                 4.08664769E-02
    980     (980)                 4.14803341E-02
    981     (981)                 4.16511663E-02
    982     (982)                 4.19543389E-02
    983     (983)                 4.19920568E-02
    984     (984)                 4.22942688E-02
    985     (985)                 4.19663318E-02
    986     (986)                 4.16801348E-02
    987     (987)                 4.23073072E-02
    988     (988)                 4.20227516E-02
    989     (989)                 4.11676664E-02
    990     (990)                 4.05213195E-02
    991     (991)                 4.15093355E-02
    992     (992)                 4.08579236E-02
    993     (993)                 3.98738307E-02
    994     (994)                 3.92810538E-02
    995     (995)                 4.01965725E-02
    996     (996)                 3.95838223E-02
    997     (997)                 3.87742190E-02
    998     (998)                 3.83587738E-02
    999     (999)                 3.90525834E-02
    1000    (1000)                3.86103337E-02
    1001    (1001)                3.80262178E-02
    1002    (1002)                3.77624952E-02
    1003    (1003)                3.82505646E-02
    1004    (1004)                3.79609937E-02
    1005    (1005)                3.75527002E-02
    1006    (1006)                3.73831625E-02
    1007    (1007)                3.77281986E-02
    1008    (1008)                3.75396663E-02
    1009    (1009)                3.72419994E-02
    1010    (1010)                3.71189153E-02
    1011    (1011)                3.73843317E-02
    1012    (1012)                3.72523842E-02
    1013    (1013)                3.70047459E-02
    1014    (1014)                3.68910377E-02
    1015    (1015)                3.71348463E-02
    1016    (1016)                3.70232186E-02
    1017    (1017)                3.67698262E-02
    1018    (1018)                3.66389332E-02
    1019    (1019)                3.69123335E-02
    1020    (1020)                3.67928084E-02
    1021    (1021)                3.64855721E-02
    1022    (1022)                3.63056248E-02
    1023    (1023)                3.66564755E-02
    1024    (1024)                3.64979881E-02
    1025    (1025)                3.60964992E-02
    1026    (1026)                3.58591046E-02
    1027    (1027)                3.63143500E-02
    1028    (1028)                3.61058254E-02
    1029    (1029)                3.55988095E-02
    1030    (1030)                3.53259426E-02
    1031    (1031)                3.58767242E-02
    1032    (1032)                3.56357674E-02
    1033    (1033)                3.50554298E-02
    1034    (1034)                3.48052727E-02
    1035    (1035)                3.53957171E-02
    1036    (1036)                3.51720639E-02
    1037    (1037)                3.45939506E-02
    1038    (1038)                3.44373179E-02
    1039    (1039)                3.49808499E-02
    1040    (1040)                3.48360863E-02
    1041    (1041)                3.43459111E-02
    1042    (1042)                3.43235085E-02
    1043    (1043)                3.47474810E-02
    1044    (1044)                3.47191407E-02
    1045    (1045)                3.43672866E-02
    1046    (1046)                3.44692803E-02
    1047    (1047)                3.47495464E-02
    1048    (1048)                3.48326208E-02
    1049    (1049)                3.46184812E-02
    1050    (1050)                3.48028812E-02
    1051    (1051)                3.49593861E-02
    1052    (1052)                3.51196710E-02
    1053    (1053)                3.50110338E-02
    1054    (1054)                3.52329915E-02
    1055    (1055)                3.53034822E-02
    1056    (1056)                3.55018963E-02
    1057    (1057)                3.54607006E-02
    1058    (1058)                3.56880158E-02
    1059    (1059)                3.57074952E-02
    1060    (1060)                3.59144643E-02
    1061    (1061)                0.0000000     
    1062    (1062)                0.0000000     
    1063    (1063)                0.0000000     
    1064    (1064)                0.0000000     
    1065    (1065)                0.0000000     
    1066    (1066)                0.0000000     
    1067    (1067)                0.0000000     
    1068    (1068)                0.0000000     
    1069    (1069)                0.0000000     
    1070    (1070)                0.0000000     
    1071    (1071)                0.0000000     
    1072    (1072)                0.0000000     
    1073    (1073)                0.0000000     
    1074    (1074)                0.0000000     
    1075    (1075)                0.0000000     
    1076    (1076)                0.0000000     
    1077    (1077)                1.98002366E-02
    1078    (1078)                1.87288707E-02
    1079    (1079)                0.0000000     
    1080    (1080)                0.0000000     
    1081    (1081)                1.85805836E-02
    1082    (1082)                1.93668868E-02
    1083    (1083)                0.0000000     
    1084    (1084)                0.0000000     
    1085    (1085)                2.08068907E-02
    1086    (1086)                2.26579571E-02
    1087    (1087)                2.39396401E-02
    1088    (1088)                2.58439334E-02
    1089    (1089)                2.46017438E-02
    1090    (1090)                2.64210143E-02
    1091    (1091)                2.75018593E-02
    1092    (1092)                2.88922021E-02
    1093    (1093)                2.80206467E-02
    1094    (1094)                2.94538015E-02
    1095    (1095)                3.00720501E-02
    1096    (1096)                3.10721993E-02
    1097    (1097)                3.05524731E-02
    1098    (1098)                3.15243584E-02
    1099    (1099)                3.18714887E-02
    1100    (1100)                3.25077659E-02
    1101    (1101)                3.22528789E-02
    1102    (1102)                3.28459166E-02
    1103    (1103)                3.26098906E-02
    1104    (1104)                3.29640490E-02
    1105    (1105)                3.33011357E-02
    1106    (1106)                3.37565679E-02
    1107    (1107)                3.36925389E-02
    1108    (1108)                3.37883008E-02
    1109    (1109)                3.39379247E-02
    1110    (1110)                3.40123833E-02
    1111    (1111)                3.41342126E-02
    1112    (1112)                3.40022869E-02
    1113    (1113)                3.39847413E-02
    1114    (1114)                3.42076028E-02
    1115    (1115)                3.37767283E-02
    1116    (1116)                3.34815390E-02
    1117    (1117)                3.39752218E-02
    1118    (1118)                3.36764978E-02
    1119    (1119)                3.31521579E-02
    1120    (1120)                3.28348654E-02
    1121    (1121)                3.33467011E-02
    1122    (1122)                3.30316547E-02
    1123    (1123)                3.25816291E-02
    1124    (1124)                3.24403811E-02
    1125    (1125)                3.27823883E-02
    1126    (1126)                3.26454609E-02
    1127    (1127)                3.24441866E-02
    1128    (1128)                3.26024482E-02
    1129    (1129)                3.26520095E-02
    1130    (1130)                3.28121816E-02
    1131    (1131)                3.29188251E-02
    1132    (1132)                3.33382558E-02
    1133    (1133)                3.31333987E-02
    1134    (1134)                3.35492997E-02
    1135    (1135)                3.38285532E-02
    1136    (1136)                3.43510236E-02
    1137    (1137)                3.40352031E-02
    1138    (1138)                3.45537576E-02
    1139    (1139)                3.48754547E-02
    1140    (1140)                3.53823298E-02
    1141    (1141)                3.50757644E-02
    1142    (1142)                3.55822093E-02
    1143    (1143)                3.58622891E-02
    1144    (1144)                3.63143729E-02
    1145    (1145)                3.60637142E-02
    1146    (1146)                3.65188440E-02
    1147    (1147)                3.65859978E-02
    1148    (1148)                3.70036305E-02
    1149    (1149)                3.68654905E-02
    1150    (1150)                3.72142801E-02
    1151    (1151)                3.74257424E-02
    1152    (1152)                3.78688169E-02
    1153    (1153)                3.76373799E-02
    1154    (1154)                3.80773836E-02
    1155    (1155)                3.83505290E-02
    1156    (1156)                3.89809148E-02
    1157    (1157)                3.85499033E-02
    1158    (1158)                3.91654363E-02
    1159    (1159)                3.95693542E-02
    1160    (1160)                4.03928051E-02
    1161    (1161)                3.99675931E-02
    1162    (1162)                4.05125617E-02
    1163    (1163)                4.10638319E-02
    1164    (1164)                4.16492109E-02
    1165    (1165)                4.11392020E-02
    1166    (1166)                4.16731341E-02
    1167    (1167)                4.21351129E-02
    1168    (1168)                4.24218717E-02
    1169    (1169)                4.21135237E-02
    1170    (1170)                4.23724979E-02
    1171    (1171)                4.24348294E-02
    1172    (1172)                4.21643677E-02
    1173    (1173)                4.23836137E-02
    1174    (1174)                4.21365037E-02
    1175    (1175)                4.16629213E-02
    1176    (1176)                4.10412550E-02
    1177    (1177)                4.16729391E-02
    1178    (1178)                4.10926067E-02
    1179    (1179)                4.03924020E-02
    1180    (1180)                3.97826931E-02
    1181    (1181)                4.04777028E-02
    1182    (1182)                3.98897201E-02
    1183    (1183)                3.92456557E-02
    1184    (1184)                3.87909273E-02
    1185    (1185)                3.93617839E-02
    1186    (1186)                3.89057626E-02
    1187    (1187)                3.84147021E-02
    1188    (1188)                3.81073663E-02
    1189    (1189)                3.85211969E-02
    1190    (1190)                3.82019973E-02
    1191    (1191)                3.78578376E-02
    1192    (1192)                3.76554736E-02
    1193    (1193)                3.79402709E-02
    1194    (1194)                3.77279555E-02
    1195    (1195)                3.74905472E-02
    1196    (1196)                3.73540510E-02
    1197    (1197)                3.75571614E-02
    1198    (1198)                3.74199531E-02
    1199    (1199)                3.72373355E-02
    1200    (1200)                3.71326686E-02
    1201    (1201)                3.73080670E-02
    1202    (1202)                3.72157319E-02
    1203    (1203)                3.70342558E-02
    1204    (1204)                3.69306070E-02
    1205    (1205)                3.71324477E-02
    1206    (1206)                3.70483395E-02
    1207    (1207)                3.68144834E-02
    1208    (1208)                3.66801551E-02
    1209    (1209)                3.69556163E-02
    1210    (1210)                3.68480421E-02
    1211    (1211)                3.65241777E-02
    1212    (1212)                3.63461720E-02
    1213    (1213)                3.67216627E-02
    1214    (1214)                3.65754602E-02
    1215    (1215)                3.61494458E-02
    1216    (1216)                3.59412327E-02
    1217    (1217)                3.64118203E-02
    1218    (1218)                3.62366477E-02
    1219    (1219)                3.57323136E-02
    1220    (1220)                3.55358844E-02
    1221    (1221)                3.60589754E-02
    1222    (1222)                3.58899792E-02
    1223    (1223)                3.53657470E-02
    1224    (1224)                3.52341835E-02
    1225    (1225)                3.57414764E-02
    1226    (1226)                3.56241873E-02
    1227    (1227)                3.51500615E-02
    1228    (1228)                3.51176844E-02
    1229    (1229)                3.55461660E-02
    1230    (1230)                3.55117974E-02
    1231    (1231)                3.51366376E-02
    1232    (1232)                3.52025297E-02
    1233    (1233)                3.55215603E-02
    1234    (1234)                3.55725137E-02
    1235    (1235)                3.53082671E-02
    1236    (1236)                3.54454406E-02
    1237    (1237)                3.56592469E-02
    1238    (1238)                3.57749849E-02
    1239    (1239)                3.56055070E-02
    1240    (1240)                3.57806103E-02
    1241    (1241)                3.59125802E-02
    1242    (1242)                3.60652510E-02
    1243    (1243)                3.59640375E-02
    1244    (1244)                3.61503790E-02
    1245    (1245)                3.62270334E-02
    1246    (1246)                3.63929856E-02
    1247    (1247)                0.0000000     
    1248    (1248)                0.0000000     
    1249    (1249)                0.0000000     
    1250    (1250)                0.0000000     
    1251    (1251)                0.0000000     
    1252    (1252)                0.0000000     
    1253    (1253)                0.0000000     
    1254    (1254)                0.0000000     
    1255    (1255)                0.0000000     
    1256    (1256)                0.0000000     
    1257    (1257)                0.0000000     
    1258    (1258)                0.0000000     
    1259    (1259)                0.0000000     
    1260    (1260)                0.0000000     
    1261    (1261)                0.0000000     
    1262    (1262)                0.0000000     
    1263    (1263)                0.0000000     
    1264    (1264)                0.0000000     
    1265    (1265)                0.0000000     
    1266    (1266)                0.0000000     
    1267    (1267)                0.0000000     
    1268    (1268)                0.0000000     
    1269    (1269)                0.0000000     
    1270    (1270)                0.0000000     
    1271    (1271)                0.0000000     
    1272    (1272)                0.0000000     
    1273    (1273)                0.0000000     
    1274    (1274)                0.0000000     
    1275    (1275)                0.0000000     
    1276    (1276)                0.0000000     
    1277    (1277)                0.0000000     
    1278    (1278)                0.0000000     
    1279    (1279)                0.0000000     
    1280    (1280)                0.0000000     
    1281    (1281)                0.0000000     
    1282    (1282)                0.0000000     
    1283    (1283)                3.06236847E-02
    1284    (1284)                0.0000000     
    1285    (1285)                0.0000000     
    1286    (1286)                2.93467525E-02
    1287    (1287)                2.77757166E-02
    1288    (1288)                0.0000000     
    1289    (1289)                2.27184032E-02
    1290    (1290)                2.60157126E-02
    1291    (1291)                2.42531081E-02
    1292    (1292)                2.10595230E-02
    1293    (1293)                2.00359462E-02
    1294    (1294)                2.27632562E-02
    1295    (1295)                2.18429717E-02
    1296    (1296)                1.98843512E-02
    1297    (1297)                2.06197814E-02
    1298    (1298)                2.16988225E-02
    1299    (1299)                2.23483130E-02
    1300    (1300)                2.19612410E-02
    1301    (1301)                2.37187428E-02
    1302    (1302)                2.35216339E-02
    1303    (1303)                2.51103240E-02
    1304    (1304)                2.55502536E-02
    1305    (1305)                2.72811363E-02
    1306    (1306)                2.67714285E-02
    1307    (1307)                2.83412242E-02
    1308    (1308)                2.87834393E-02
    1309    (1309)                3.00426588E-02
    1310    (1310)                2.96985328E-02
    1311    (1311)                3.08295503E-02
    1312    (1312)                3.11796067E-02
    1313    (1313)                3.20305779E-02
    1314    (1314)                3.17473508E-02
    1315    (1315)                3.26048978E-02
    1316    (1316)                3.27084832E-02
    1317    (1317)                3.32321727E-02
    1318    (1318)                3.32035100E-02
    1319    (1319)                3.36631261E-02
    1320    (1320)                3.36424304E-02
    1321    (1321)                3.40634439E-02
    1322    (1322)                3.45386466E-02
    1323    (1323)                3.47810416E-02
    1324    (1324)                3.42175242E-02
    1325    (1325)                3.42711142E-02
    1326    (1326)                3.45316285E-02
    1327    (1327)                3.45654320E-02
    1328    (1328)                3.42280939E-02
    1329    (1329)                3.44578758E-02
    1330    (1330)                3.45097325E-02
    1331    (1331)                3.43732002E-02
    1332    (1332)                3.42264092E-02
    1333    (1333)                3.39337118E-02
    1334    (1334)                3.45291674E-02
    1335    (1335)                3.42504041E-02
    1336    (1336)                3.36141132E-02
    1337    (1337)                3.33116744E-02
    1338    (1338)                3.39494229E-02
    1339    (1339)                3.36674397E-02
    1340    (1340)                3.30748023E-02
    1341    (1341)                3.29470476E-02
    1342    (1342)                3.34489445E-02
    1343    (1343)                3.33333288E-02
    1344    (1344)                3.29570770E-02
    1345    (1345)                3.31377074E-02
    1346    (1346)                3.33766958E-02
    1347    (1347)                3.35293925E-02
    1348    (1348)                3.34339900E-02
    1349    (1349)                3.38351690E-02
    1350    (1350)                3.38082071E-02
    1351    (1351)                3.41853085E-02
    1352    (1352)                3.43043965E-02
    1353    (1353)                3.48068259E-02
    1354    (1354)                3.46277016E-02
    1355    (1355)                3.51038796E-02
    1356    (1356)                3.53149502E-02
    1357    (1357)                3.58105012E-02
    1358    (1358)                3.55885339E-02
    1359    (1359)                3.60643442E-02
    1360    (1360)                3.62840092E-02
    1361    (1361)                3.66412828E-02
    1362    (1362)                3.64254140E-02
    1363    (1363)                3.68642648E-02
    1364    (1364)                3.70742307E-02
    1365    (1365)                3.74173278E-02
    1366    (1366)                3.72853094E-02
    1367    (1367)                3.76938426E-02
    1368    (1368)                3.78320842E-02
    1369    (1369)                3.82585788E-02
    1370    (1370)                3.80146069E-02
    1371    (1371)                3.84196152E-02
    1372    (1372)                3.87099044E-02
    1373    (1373)                3.96084466E-02
    1374    (1374)                3.93321257E-02
    1375    (1375)                3.97100016E-02
    1376    (1376)                4.00624349E-02
    1377    (1377)                4.05534732E-02
    1378    (1378)                4.01136137E-02
    1379    (1379)                4.05412572E-02
    1380    (1380)                4.11224627E-02
    1381    (1381)                4.15889637E-02
    1382    (1382)                4.10465698E-02
    1383    (1383)                4.14374223E-02
    1384    (1384)                4.19700476E-02
    1385    (1385)                4.21921286E-02
    1386    (1386)                4.17521352E-02
    1387    (1387)                4.19321351E-02
    1388    (1388)                4.21990733E-02
    1389    (1389)                4.19734561E-02
    1390    (1390)                4.19303854E-02
    1391    (1391)                4.17310747E-02
    1392    (1392)                4.15638924E-02
    1393    (1393)                4.10393585E-02
    1394    (1394)                4.13752663E-02
    1395    (1395)                4.09127807E-02
    1396    (1396)                4.04732065E-02
    1397    (1397)                3.99199793E-02
    1398    (1398)                4.04024938E-02
    1399    (1399)                3.98905560E-02
    1400    (1400)                3.94113987E-02
    1401    (1401)                3.89614656E-02
    1402    (1402)                3.94063336E-02
    1403    (1403)                3.89656360E-02
    1404    (1404)                3.85735407E-02
    1405    (1405)                3.82458132E-02
    1406    (1406)                3.85758697E-02
    1407    (1407)                3.82401107E-02
    1408    (1408)                3.79743948E-02
    1409    (1409)                3.77545153E-02
    1410    (1410)                3.79592555E-02
    1411    (1411)                3.77325582E-02
    1412    (1412)                3.75806118E-02
    1413    (1413)                3.74460345E-02
    1414    (1414)                3.75572826E-02
    1415    (1415)                3.74282264E-02
    1416    (1416)                3.73437741E-02
    1417    (1417)                3.72670141E-02
    1418    (1418)                3.73406410E-02
    1419    (1419)                3.72826787E-02
    1420    (1420)                3.72030533E-02
    1421    (1421)                3.71423891E-02
    1422    (1422)                3.72426416E-02
    1423    (1423)                3.72097319E-02
    1424    (1424)                3.70764308E-02
    1425    (1425)                3.69982744E-02
    1426    (1426)                3.71742332E-02
    1427    (1427)                3.71283774E-02
    1428    (1428)                3.69033828E-02
    1429    (1429)                3.67901148E-02
    1430    (1430)                3.70669705E-02
    1431    (1431)                3.69877785E-02
    1432    (1432)                3.66600339E-02
    1433    (1433)                3.65179036E-02
    1434    (1434)                3.68916673E-02
    1435    (1435)                3.67824652E-02
    1436    (1436)                3.63712696E-02
    1437    (1437)                3.62295906E-02
    1438    (1438)                3.66665068E-02
    1439    (1439)                3.65518434E-02
    1440    (1440)                3.61029851E-02
    1441    (1441)                3.60008083E-02
    1442    (1442)                3.64471878E-02
    1443    (1443)                3.63607422E-02
    1444    (1444)                3.59303605E-02
    1445    (1445)                3.58960201E-02
    1446    (1446)                3.62991372E-02
    1447    (1447)                3.62666885E-02
[...]
   18194    (18194)               3.66300053E-03
   18195    (18195)               3.67243461E-03
   18196    (18196)               3.67486941E-03
   18197    (18197)               3.68768125E-03
   18198    (18198)               3.68346898E-03
   18199    (18199)               3.69585015E-03
   18200    (18200)               3.70167044E-03
   18201    (18201)               3.71674480E-03
   18202    (18202)               3.70937781E-03
   18203    (18203)               3.72398868E-03
   18204    (18204)               3.73305470E-03
   18205    (18205)               3.75081191E-03
   18206    (18206)               3.73975151E-03
   18207    (18207)               3.75677363E-03
   18208    (18208)               3.77011890E-03
   18209    (18209)               3.79089761E-03
   18210    (18210)               3.77509862E-03
   18211    (18211)               3.79465114E-03
   18212    (18212)               3.81290528E-03
   18213    (18213)               3.83578907E-03
   18214    (18214)               3.81523500E-03
   18215    (18215)               3.83656285E-03
   18216    (18216)               3.85914200E-03
   18217    (18217)               3.88254429E-03
   18218    (18218)               3.85829432E-03
   18219    (18219)               3.88006865E-03
   18220    (18220)               3.90558763E-03
   18221    (18221)               3.92788815E-03
   18222    (18222)               3.90152782E-03
   18223    (18223)               3.92233128E-03
   18224    (18224)               3.94909348E-03
   18225    (18225)               3.96888952E-03
   18226    (18226)               3.94216575E-03
   18227    (18227)               3.78150700E-03
   18228    (18228)               3.78200230E-03
   18229    (18229)               3.76610483E-03
   18230    (18230)               3.75025425E-03
   18231    (18231)               3.76754000E-03
   18232    (18232)               3.75275087E-03
   18233    (18233)               3.73420205E-03
   18234    (18234)               3.71827991E-03
   18235    (18235)               3.73787483E-03
   18236    (18236)               3.72322722E-03
   18237    (18237)               3.70292371E-03
   18238    (18238)               3.68869376E-03
   18239    (18239)               3.70921256E-03
   18240    (18240)               3.69633485E-03
   18241    (18241)               3.67628396E-03
   18242    (18242)               3.66649410E-03
   18243    (18243)               3.68519251E-03
   18244    (18244)               3.68157721E-03
   18245    (18245)               3.66376447E-03
   18246    (18246)               3.66109444E-03
   18247    (18247)               3.67550602E-03
   18248    (18248)               3.67304585E-03
   18249    (18249)               3.66065712E-03
   18250    (18250)               3.66536756E-03
   18251    (18251)               3.67182268E-03
   18252    (18252)               3.67604645E-03
   18253    (18253)               3.67256607E-03
   18254    (18254)               3.68165852E-03
   18255    (18255)               3.68269402E-03
   18256    (18256)               3.69123623E-03
   18257    (18257)               3.69227219E-03
   18258    (18258)               3.70416159E-03
   18259    (18259)               3.70129173E-03
   18260    (18260)               3.71260887E-03
   18261    (18261)               3.71717020E-03
   18262    (18262)               3.73123699E-03
   18263    (18263)               3.72503354E-03
   18264    (18264)               3.73849044E-03
   18265    (18265)               3.74637943E-03
   18266    (18266)               3.76263795E-03
   18267    (18267)               3.75295862E-03
   18268    (18268)               3.76843268E-03
   18269    (18269)               3.78001282E-03
   18270    (18270)               3.79842426E-03
   18271    (18271)               3.78488113E-03
   18272    (18272)               3.80221795E-03
   18273    (18273)               3.81770476E-03
   18274    (18274)               3.83761441E-03
   18275    (18275)               3.82029361E-03
   18276    (18276)               3.83890267E-03
   18277    (18277)               3.85786602E-03
   18278    (18278)               3.87815007E-03
   18279    (18279)               3.85779991E-03
   18280    (18280)               3.87671893E-03
   18281    (18281)               3.89815461E-03
   18282    (18282)               3.91757987E-03
   18283    (18283)               3.89538848E-03
   18284    (18284)               3.91354581E-03
   18285    (18285)               3.78316521E-03
   18286    (18286)               3.76964146E-03
   18287    (18287)               3.75590213E-03
   18288    (18288)               3.77227887E-03
   18289    (18289)               3.75955870E-03
   18290    (18290)               3.74217843E-03
   18291    (18291)               3.72876695E-03
   18292    (18292)               3.74694129E-03
   18293    (18293)               3.73470196E-03
   18294    (18294)               3.71603798E-03
   18295    (18295)               3.70443753E-03
   18296    (18296)               3.72317478E-03
   18297    (18297)               3.71274877E-03
   18298    (18298)               3.70105385E-03
   18299    (18299)               3.69286755E-03
   18300    (18300)               3.71138022E-03
   18301    (18301)               3.70415173E-03
   18302    (18302)               3.68749737E-03
   18303    (18303)               3.68525862E-03
   18304    (18304)               3.69940720E-03
   18305    (18305)               3.69738796E-03
   18306    (18306)               3.68332846E-03
   18307    (18307)               3.68708443E-03
   18308    (18308)               3.69483513E-03
   18309    (18309)               3.69818103E-03
   18310    (18310)               3.69313424E-03
   18311    (18311)               3.70104403E-03
   18312    (18312)               3.70366101E-03
   18313    (18313)               3.71093277E-03
   18314    (18314)               3.71046485E-03
   18315    (18315)               3.72114951E-03
   18316    (18316)               3.71969555E-03
   18317    (18317)               3.72971851E-03
   18318    (18318)               3.73293776E-03
   18319    (18319)               3.74573608E-03
   18320    (18320)               3.74083917E-03
   18321    (18321)               3.75294931E-03
   18322    (18322)               3.75949328E-03
   18323    (18323)               3.77417109E-03
   18324    (18324)               3.76597518E-03
   18325    (18325)               3.77985480E-03
   18326    (18326)               3.78971474E-03
   18327    (18327)               3.80603219E-03
   18328    (18328)               3.79451664E-03
   18329    (18329)               3.80986382E-03
   18330    (18330)               3.82298576E-03
   18331    (18331)               3.84039528E-03
   18332    (18332)               3.82576695E-03
   18333    (18333)               3.84206496E-03
   18334    (18334)               3.85804864E-03
   18335    (18335)               3.87571510E-03
   18336    (18336)               3.85857180E-03
   18337    (18337)               3.87508612E-03
   18338    (18338)               3.89315850E-03
   18339    (18339)               3.91014874E-03
   18340    (18340)               3.89140155E-03
   18341    (18341)               3.90731624E-03
   18342    (18342)               3.92647114E-03
   18343    (18343)               3.94193415E-03
   18344    (18344)               3.92264116E-03
   18345    (18345)               3.93720686E-03
   18346    (18346)               3.95637569E-03
   18347    (18347)               3.95086928E-03
   18348    (18348)               3.76358982E-03
   18349    (18349)               3.75201744E-03
   18350    (18350)               3.74087082E-03
   18351    (18351)               3.75728695E-03
   18352    (18352)               3.74714641E-03
   18353    (18353)               3.73044752E-03
   18354    (18354)               3.72108331E-03
   18355    (18355)               3.73772533E-03
   18356    (18356)               3.72931145E-03
   18357    (18357)               3.72161285E-03
   18358    (18358)               3.71522611E-03
   18359    (18359)               3.73161650E-03
   18360    (18360)               3.72596649E-03
   18361    (18361)               3.71103460E-03
   18362    (18362)               3.70922708E-03
   18363    (18363)               3.72226292E-03
   18364    (18364)               3.72065654E-03
   18365    (18365)               3.70612985E-03
   18366    (18366)               3.70913093E-03
   18367    (18367)               3.71708332E-03
   18368    (18368)               3.71979991E-03
   18369    (18369)               3.71409809E-03
   18370    (18370)               3.72076591E-03
   18371    (18371)               3.72431795E-03
   18372    (18372)               3.73043304E-03
   18373    (18373)               3.72888357E-03
   18374    (18374)               3.73824346E-03
   18375    (18375)               3.73793953E-03
   18376    (18376)               3.74665543E-03
   18377    (18377)               3.74868727E-03
   18378    (18378)               3.76009836E-03
   18379    (18379)               3.75643153E-03
   18380    (18380)               3.76714884E-03
   18381    (18381)               3.77238767E-03
   18382    (18382)               3.78547700E-03
   18383    (18383)               3.77870963E-03
   18384    (18384)               3.79102550E-03
   18385    (18385)               3.79928318E-03
   18386    (18386)               3.81370617E-03
   18387    (18387)               3.80400603E-03
   18388    (18388)               3.81754968E-03
   18389    (18389)               3.82862295E-03
   18390    (18390)               3.84388729E-03
   18391    (18391)               3.83153900E-03
   18392    (18392)               3.85933402E-03
   18393    (18393)               3.87478587E-03
   18394    (18394)               3.87477333E-03
   18395    (18395)               3.89006153E-03
   18396    (18396)               3.90498343E-03
   18397    (18397)               3.88908855E-03
   18398    (18398)               3.90309234E-03
   18399    (18399)               3.91938465E-03
   18400    (18400)               3.75343176E-03
   18401    (18401)               3.75965496E-03
   18402    (18402)               3.74491385E-03
   18403    (18403)               3.74784398E-03
   18404    (18404)               3.75194744E-03
   18405    (18405)               3.75645912E-03
   18406    (18406)               3.74130673E-03
   18407    (18407)               3.73630157E-03
   18408    (18408)               3.75063415E-03
   18409    (18409)               3.74619446E-03
   18410    (18410)               3.73302895E-03
   18411    (18411)               3.73161178E-03
   18412    (18412)               3.74330331E-03
   18413    (18413)               3.74206268E-03
   18414    (18414)               3.72762056E-03
   18415    (18415)               3.73010405E-03
   18416    (18416)               3.73770199E-03
   18417    (18417)               3.73999434E-03
   18418    (18418)               3.73423357E-03
   18419    (18419)               3.73985173E-03
   18420    (18420)               3.74378896E-03
   18421    (18421)               3.74896432E-03
   18422    (18422)               3.74679124E-03
   18423    (18423)               3.75489510E-03
   18424    (18424)               3.75538450E-03
   18425    (18425)               3.76291519E-03
   18426    (18426)               3.76402610E-03
   18427    (18427)               3.77406769E-03
   18428    (18428)               3.77143256E-03
   18429    (18429)               3.78082552E-03
   18430    (18430)               3.78491868E-03
   18431    (18431)               3.79648550E-03
   18432    (18432)               3.79099353E-03
   18433    (18433)               3.80184158E-03
   18434    (18434)               3.80867401E-03
   18435    (18435)               3.82138291E-03
   18436    (18436)               3.81327472E-03
   18437    (18437)               3.82519344E-03
   18438    (18438)               3.83449998E-03
   18439    (18439)               3.83749077E-03
   18440    (18440)               3.88843808E-03
   18441    (18441)               3.90159130E-03
   18442    (18442)               3.75878202E-03
   18443    (18443)               3.76477082E-03
   18444    (18444)               3.77840011E-03
   18445    (18445)               3.77275811E-03
   18446    (18446)               3.75957315E-03
   18447    (18447)               3.75563059E-03
   18448    (18448)               3.76811392E-03
   18449    (18449)               3.76460964E-03
   18450    (18450)               3.75307785E-03
   18451    (18451)               3.75200081E-03
   18452    (18452)               3.76235777E-03
   18453    (18453)               3.76143135E-03
   18454    (18454)               3.74731096E-03
   18455    (18455)               3.74944572E-03
   18456    (18456)               3.75644581E-03
   18457    (18457)               3.75844944E-03
   18458    (18458)               3.75295135E-03
   18459    (18459)               3.75773337E-03
   18460    (18460)               3.76170458E-03
   18461    (18461)               3.76613731E-03
   18462    (18462)               3.76368127E-03
   18463    (18463)               3.77068059E-03
   18464    (18464)               3.77165728E-03
   18465    (18465)               3.77816708E-03
   18466    (18466)               3.77862075E-03
   18467    (18467)               3.78739815E-03
   18468    (18468)               3.78556873E-03
   18469    (18469)               3.79376687E-03
   18470    (18470)               3.79691549E-03
   18471    (18471)               3.80707923E-03
   18472    (18472)               3.80266930E-03
   18473    (18473)               3.81218579E-03
   18474    (18474)               3.81779584E-03
   18475    (18475)               3.82896885E-03
   18476    (18476)               3.82222595E-03
   18477    (18477)               3.83269721E-03
   18478    (18478)               3.78041197E-03
   18479    (18479)               3.77625725E-03
   18480    (18480)               3.77314045E-03
   18481    (18481)               3.78401070E-03
   18482    (18482)               3.78123725E-03
   18483    (18483)               3.77115636E-03
   18484    (18484)               3.77036789E-03
   18485    (18485)               3.77949192E-03
   18486    (18486)               3.77882912E-03
   18487    (18487)               3.76511452E-03
   18488    (18488)               3.76700774E-03
   18489    (18489)               3.77333120E-03
   18490    (18490)               3.77513017E-03
   18491    (18491)               3.77004448E-03
   18492    (18492)               3.77416635E-03
   18493    (18493)               3.77797512E-03
   18494    (18494)               3.78181953E-03
   18495    (18495)               3.77929914E-03
   18496    (18496)               3.78535982E-03
   18497    (18497)               3.78660199E-03
   18498    (18498)               3.79225148E-03
   18499    (18499)               3.79226186E-03
   18500    (18500)               3.79869177E-03
   18501    (18501)               3.82655501E-03
   18502    (18502)               3.83636778E-03
   18503    (18503)               3.83077473E-03
   18504    (18504)               3.83997108E-03
   18505    (18505)               3.84947093E-03
   18506    (18506)               3.85918791E-03
   18507    (18507)               3.78891769E-03
   18508    (18508)               3.78738535E-03
   18509    (18509)               3.78683656E-03
   18510    (18510)               3.79485897E-03
   18511    (18511)               3.79441315E-03
   18512    (18512)               3.78111367E-03
   18513    (18513)               3.78283105E-03
   18514    (18514)               3.78848191E-03
   18515    (18515)               3.79012756E-03
   18516    (18516)               3.78550634E-03
   18517    (18517)               3.78910213E-03
   18518    (18518)               3.79265167E-03
   18519    (18519)               3.79602377E-03
   18520    (18520)               3.79356721E-03
   18521    (18521)               3.79884063E-03
   18522    (18522)               3.80020085E-03
   18523    (18523)               3.80513035E-03
   18524    (18524)               3.80485524E-03
   18525    (18525)               3.83487865E-03
   18526    (18526)               3.84349913E-03
   18527    (18527)               3.83886198E-03
   18528    (18528)               3.84694546E-03
   18529    (18529)               3.85240979E-03
   18530    (18530)               3.86153041E-03
   18531    (18531)               3.85530671E-03
   18532    (18532)               3.86387149E-03
   18533    (18533)               3.80158231E-03
   18534    (18534)               3.80836724E-03
   18535    (18535)               3.79545692E-03
   18536    (18536)               3.79703864E-03
   18537    (18537)               3.80205998E-03
   18538    (18538)               3.80358390E-03
   18539    (18539)               3.79942700E-03
   18540    (18540)               3.80259700E-03
   18541    (18541)               3.80584958E-03
   18542    (18542)               3.80883622E-03
   18543    (18543)               3.80651218E-03
   18544    (18544)               3.84272165E-03
   18545    (18545)               3.85030501E-03
   18546    (18546)               3.85815446E-03
   18547    (18547)               3.86620137E-03
   18548    (18548)               3.80831213E-03
   18549    (18549)               3.80978319E-03
   18550    (18550)               3.81193729E-03
 -----------------------------------------------




 HEAD WILL BE SAVED ON UNIT 1018 AT END OF TIME STEP    1, STRESS PERIOD    1


  VOLUME BUDGET FOR ENTIRE MODEL AT END OF TIME STEP    1, STRESS PERIOD   1
  ---------------------------------------------------------------------------------------------------

     CUMULATIVE VOLUME      L**3       RATES FOR THIS TIME STEP      L**3/T          PACKAGE NAME    
     ------------------                 ------------------------                     ----------------

           IN:                                      IN:
           ---                                      ---
                 WEL =           0.0000                   WEL =           0.0000     WELL_CASEA                       
                 RCH =         626.2594                   RCH =         626.2594     RCH                              
                 EVT =           0.0000                   EVT =           0.0000     EVT                              
                 CHD =           0.0000                   CHD =           0.0000     CHD                              

            TOTAL IN =         626.2594              TOTAL IN =         626.2594

          OUT:                                     OUT:
          ----                                     ----
                 WEL =          75.9006                   WEL =          75.9006     WELL_CASEA                       
                 RCH =           0.0000                   RCH =           0.0000     RCH                              
                 EVT =           7.6615                   EVT =           7.6615     EVT                              
                 CHD =         542.6971                   CHD =         542.6971     CHD                              

           TOTAL OUT =         626.2592             TOTAL OUT =         626.2592

            IN - OUT =       1.3357E-04              IN - OUT =       1.3357E-04

 PERCENT DISCREPANCY =           0.00     PERCENT DISCREPANCY =           0.00




         TIME SUMMARY AT END OF TIME STEP    1 IN STRESS PERIOD    1
                    SECONDS     MINUTES      HOURS       DAYS        YEARS
                    -----------------------------------------------------------
   TIME STEP LENGTH  1.0000     1.66667E-02 2.77778E-04 1.15741E-05 3.16881E-08
 STRESS PERIOD TIME  1.0000     1.66667E-02 2.77778E-04 1.15741E-05 3.16881E-08
         TOTAL TIME  1.0000     1.66667E-02 2.77778E-04 1.15741E-05 3.16881E-08


end timestep

