                                   MODFLOW 6
                U.S. GEOLOGICAL SURVEY MODULAR HYDROLOGIC MODEL
                          GROUNDWATER FLOW MODEL (GWF)
                            VERSION 6.6.0 12/20/2024

   MODFLOW 6 compiled Dec 31 2024 17:10:16 with Intel(R) Fortran Intel(R) 64
   Compiler Classic for applications running on Intel(R) 64, Version 2021.7.0
                             Build 20220726_000000

This software has been approved for release by the U.S. Geological 
Survey (USGS). Although the software has been subjected to rigorous 
review, the USGS reserves the right to update the software as needed 
pursuant to further analysis and review. No warranty, expressed or 
implied, is made by the USGS or the U.S. Government as to the 
functionality of the software and related material nor shall the 
fact of release constitute any such warranty. Furthermore, the 
software is released on condition that neither the USGS nor the U.S. 
Government shall be held liable for any damages resulting from its 
authorized or unauthorized use. Also refer to the USGS Water 
Resources Software User Rights Notice for complete use, copyright, 
and distribution information.


As a work of the United States Government, this USGS product is 
in the public domain within the United States. You can copy, 
modify, distribute, and perform the work, even for commercial 
purposes, all without asking permission. Additionally, USGS 
waives copyright and related rights in the work worldwide 
through CC0 1.0 Universal Public Domain Dedication 
(https://creativecommons.org/publicdomain/zero/1.0/).

The following GNU Lesser General Public License (LGPL) libraries
are used in this USGS product:

    SPARSKIT version 2.0
      ilut, luson, and qsplit 
      (https://www-users.cse.umn.edu/~saad/software/SPARSKIT/)

    RCM - Reverse Cuthill McKee Ordering
      (https://people.math.sc.edu/Burkardt/f_src/rcm/rcm.html)

    BLAS - Basic Linear Algebra Subprograms Level 1
      (https://people.math.sc.edu/Burkardt/f_src/blas1_d/blas1_d.html)

    SPARSEKIT - Sparse Matrix Utility Package
      amux, dperm, dvperm, rperm, and cperm
      (https://people.sc.fsu.edu/~jburkardt/f77_src/sparsekit/sparsekit.html)

The following BSD-3 License libraries are used in this USGS product:

    Modern Fortran DAG Library
      Copyright (c) 2018, Jacob Williams
      All rights reserved.
      (https://github.com/jacobwilliams/daglib)

MODFLOW 6 compiler options: /O2 /heap-arrays:0 /fpe:0 /traceback /nologo /fpp
/c /module:win64\mod_mf6\ /object:win64\obj_mf6\

System command used to initiate simulation:
mf6

MODFLOW was compiled using uniform precision.

Real Variables
  KIND: 8
  TINY (smallest non-zero value):    2.225074-308
  HUGE (largest value):    1.797693+308
  PRECISION: 15
  SIZE IN BITS: 64

Integer Variables
  KIND: 4
  HUGE (largest value): 2147483647
  SIZE IN BITS: 32

Long Integer Variables
  KIND: 8
  HUGE (largest value): 9223372036854775807
  SIZE IN BITS: 64

Logical Variables
  KIND: 4
  SIZE IN BITS: 32
 
 NAMEFILE OPTIONS:
    FLOWS WILL BE SAVED TO BUDGET FILE SPECIFIED IN OUTPUT CONTROL
 END NAMEFILE OPTIONS:

 DISV -- VERTEX GRID DISCRETIZATION PACKAGE, VERSION 1 : 12/23/2015 - INPUT READ FROM MEMPATH: __INPUT__/VORONOI_CASEC/DISV                      


 Setting Discretization Options
 End Setting Discretization Options

 Setting Discretization Dimensions
    NLAY = 2
    NCPL = 29071
    NVERT = 63528
 End Setting Discretization Dimensions

 Setting Discretization Griddata
    TOP set from input file
    BOTM set from input file
 End Setting Discretization Griddata

 Discretization Vertex data loaded
 Discretization Cell2d data loaded

 NPF -- NODE PROPERTY FLOW PACKAGE, VERSION 1, 3/30/2015 INPUT READ FROM MEMPATH: __INPUT__/VORONOI_CASEC/NPF                       


 IC -- Initial Conditions Package, Version 8, 3/28/2015 input read from mempath: __INPUT__/VORONOI_CASEC/IC                        


 Setting NPF Options
    Cell-by-cell flow information will be saved to binary file whenever ICBCFL is not zero.
    Specific discharge will be calculated at cell centers and written to DATA-SPDIS in budget file when requested.
 End Setting NPF Options

 Setting NPF Griddata
    ICELLTYPE set from input file
    K set from input file
    K33 not provided.  Setting K33 = K.
    K22 not provided.  Setting K22 = K.
 End Setting NPF Griddata


 WEL   -- WEL PACKAGE, VERSION 8, 2/22/2014 INPUT READ FROM MEMPATH: __INPUT__/VORONOI_CASEC/WELL_PACKAGE              

 PROCESSING WEL BASE OPTIONS
    FLOWS WILL BE SAVED TO BUDGET FILE SPECIFIED IN OUTPUT CONTROL
 END OF WEL BASE OPTIONS

 PROCESSING WEL OPTIONS
 END OF WEL OPTIONS

 PROCESSING WEL BASE DIMENSIONS
    MAXBOUND =   30654
 END OF WEL BASE DIMENSIONS

 RCH   -- RCH PACKAGE, VERSION 8, 2/22/2014 INPUT READ FROM MEMPATH: __INPUT__/VORONOI_CASEC/RCH                       

 PROCESSING RCH BASE OPTIONS
    FLOWS WILL BE SAVED TO BUDGET FILE SPECIFIED IN OUTPUT CONTROL
    RCH FLOWS WILL BE PRINTED TO LISTING FILE.
 END OF RCH BASE OPTIONS

 PROCESSING RCH OPTIONS
    RECHARGE WILL BE APPLIED TO SPECIFIED CELL.
 END OF RCH OPTIONS

 PROCESSING RCH BASE DIMENSIONS
    MAXBOUND =   29071
 END OF RCH BASE DIMENSIONS

 EVT   -- EVT PACKAGE, VERSION 8, 2/22/2014 INPUT READ FROM MEMPATH: __INPUT__/VORONOI_CASEC/EVT                       

 PROCESSING EVT BASE OPTIONS
    FLOWS WILL BE SAVED TO BUDGET FILE SPECIFIED IN OUTPUT CONTROL
 END OF EVT BASE OPTIONS

 PROCESSING EVT OPTIONS
 END OF EVT OPTIONS

 PROCESSING EVT BASE DIMENSIONS
    MAXBOUND =   22251
 END OF EVT BASE DIMENSIONS

 PROCESSING EVT DIMENSIONS
    NSEG = 1
 END OF EVT DIMENSIONS

 CHD   -- CHD PACKAGE, VERSION 8, 2/22/2014 INPUT READ FROM MEMPATH: __INPUT__/VORONOI_CASEC/CHD                       

 PROCESSING CHD BASE OPTIONS
    FLOWS WILL BE SAVED TO BUDGET FILE SPECIFIED IN OUTPUT CONTROL
 END OF CHD BASE OPTIONS

 PROCESSING CHD BASE DIMENSIONS
    MAXBOUND =   17182
 END OF CHD BASE DIMENSIONS
    STRT set from input file
    BINARY GRID INFORMATION WILL BE WRITTEN TO:
      UNIT NUMBER: 1016
      FILE NAME: voronoi_caseC.disv.grb

 OPENED voronoi_caseC.disv.grb
 FILE TYPE:DATA(BINARY)   UNIT 1016   STATUS:REPLACE             
 FORMAT:UNFORMATTED            ACCESS:STREAM              
 ACTION:READWRITE           

      THE LAST TIME STEP WILL BE PRINTED
      THE LAST TIME STEP WILL BE PRINTED
 # File generated by Flopy version 3.9.1 on 02/10/2026 at 22:14:51.

 PROCESSING OC OPTIONS

    BUDGET INFORMATION WILL BE WRITTEN TO:
      UNIT NUMBER: 1017
      FILE NAME: voronoi_caseC.cbc

 OPENED voronoi_caseC.cbc
 FILE TYPE:DATA(BINARY)   UNIT 1017   STATUS:REPLACE             
 FORMAT:UNFORMATTED            ACCESS:STREAM              
 ACTION:READWRITE           

    HEAD INFORMATION WILL BE WRITTEN TO:
      UNIT NUMBER: 1018
      FILE NAME: voronoi_caseC.hds

 OPENED voronoi_caseC.hds
 FILE TYPE:DATA(BINARY)   UNIT 1018   STATUS:REPLACE             
 FORMAT:UNFORMATTED            ACCESS:STREAM              
 ACTION:READWRITE           

 END OF OC OPTIONS

start timestep kper="1" kstp="1" mode="normal"


 BEGIN READING OUTPUT CONTROL FOR STRESS PERIOD 1
      THE LAST TIME STEP WILL BE SAVED
      THE LAST TIME STEP WILL BE SAVED
      THE LAST TIME STEP WILL BE PRINTED

 END READING OUTPUT CONTROL FOR STRESS PERIOD 1
 UBDSV1 SAVING     FLOW-JA-FACE ON UNIT   1017 AT TIME STEP      1, STRESS PERIOD      1
 UBDSV06 SAVING       DATA-SPDIS IN MODEL VORONOI_CASEC    PACKAGE NPF             CONNECTED TO MODEL VORONOI_CASEC    PACKAGE NPF              ON UNIT   1017 AT TIME STEP      1, STRESS PERIOD      1
 UBDSV06 SAVING              WEL IN MODEL VORONOI_CASEC    PACKAGE VORONOI_CASEC   CONNECTED TO MODEL VORONOI_CASEC    PACKAGE WELL_PACKAGE     ON UNIT   1017 AT TIME STEP      1, STRESS PERIOD      1
 UBDSV06 SAVING              RCH IN MODEL VORONOI_CASEC    PACKAGE VORONOI_CASEC   CONNECTED TO MODEL VORONOI_CASEC    PACKAGE RCH              ON UNIT   1017 AT TIME STEP      1, STRESS PERIOD      1
 UBDSV06 SAVING              EVT IN MODEL VORONOI_CASEC    PACKAGE VORONOI_CASEC   CONNECTED TO MODEL VORONOI_CASEC    PACKAGE EVT              ON UNIT   1017 AT TIME STEP      1, STRESS PERIOD      1
 UBDSV06 SAVING              CHD IN MODEL VORONOI_CASEC    PACKAGE VORONOI_CASEC   CONNECTED TO MODEL VORONOI_CASEC    PACKAGE CHD              ON UNIT   1017 AT TIME STEP      1, STRESS PERIOD      1

 RCH PACKAGE (RCH) FLOW RATES   PERIOD      1   STEP        1
 -----------------------------------------------
   NUMBER   CELLID                    RATE      
 -----------------------------------------------
     1      (1,1)                 0.0000000     
     2      (1,2)                 0.0000000     
     3      (1,3)                 0.0000000     
     4      (1,4)                 0.0000000     
     5      (1,5)                 0.0000000     
     6      (1,6)                 0.0000000     
     7      (1,7)                 0.0000000     
     8      (1,8)                 0.0000000     
     9      (1,9)                 0.0000000     
     10     (1,10)                0.0000000     
     11     (1,11)                0.0000000     
     12     (1,12)                0.0000000     
     13     (1,13)                0.0000000     
     14     (1,14)                0.0000000     
     15     (1,15)                0.0000000     
     16     (1,16)                0.0000000     
     17     (1,17)                0.0000000     
     18     (1,18)                0.0000000     
     19     (1,19)                0.0000000     
     20     (1,20)                0.0000000     
     21     (1,21)                0.0000000     
     22     (1,22)                0.0000000     
     23     (1,23)                0.0000000     
     24     (1,24)                0.0000000     
     25     (1,25)                0.0000000     
     26     (1,26)                0.0000000     
     27     (1,27)                0.0000000     
     28     (1,28)                0.0000000     
     29     (1,29)                0.0000000     
     30     (1,30)                0.0000000     
     31     (1,31)                0.0000000     
     32     (1,32)                0.0000000     
     33     (1,33)                0.0000000     
     34     (1,34)                0.0000000     
     35     (1,35)                0.14757580    
     36     (1,36)                0.17924195    
     37     (1,37)                0.13488516    
     38     (1,38)                0.26283010    
     39     (1,39)                0.12112261    
     40     (1,40)                6.50776077E-02
     41     (1,41)                0.12066271    
     42     (1,42)                5.82692496E-02
     43     (1,43)                0.11308833    
     44     (1,44)                0.17588603    
     45     (1,45)                8.14476062E-04
     46     (1,46)                3.64689182E-02
     47     (1,47)                0.11085531    
     48     (1,48)                2.82796553E-03
     49     (1,49)                4.49369782E-02
     50     (1,50)                0.15024203    
     51     (1,51)                0.20524585    
     52     (1,52)                0.11446022    
     53     (1,53)                2.44448848E-02
     54     (1,54)                8.38380892E-03
     55     (1,55)                4.40489920E-02
     56     (1,56)                5.99186143E-03
     57     (1,57)                1.54944027E-03
     58     (1,58)                1.74057721E-02
     59     (1,59)                1.14376224E-02
     60     (1,60)                0.16581211    
     61     (1,61)                0.26341345    
     62     (1,62)                3.82249488E-02
     63     (1,63)                9.55774490E-02
     64     (1,64)                0.17159152    
     65     (1,65)                4.42166526E-03
     66     (1,66)                4.12387767E-02
     67     (1,67)                6.51590493E-03
     68     (1,68)                1.68016202E-04
     69     (1,69)                2.26943848E-03
     70     (1,70)                4.12686088E-03
     71     (1,71)                3.28714041E-03
     72     (1,72)                1.79477910E-03
     73     (1,73)                2.63384518E-03
     74     (1,74)                3.98177717E-03
     75     (1,75)                7.91853726E-02
     76     (1,76)                0.18960808    
     77     (1,77)                2.68663739E-02
     78     (1,78)                2.14183704E-03
     79     (1,79)                5.96540912E-04
     80     (1,80)                1.54129504E-02
     81     (1,81)                1.24861404E-02
     82     (1,82)                1.77769026E-02
     83     (1,83)                8.06606847E-04
     84     (1,84)                4.28777763E-03
     85     (1,85)                3.98088917E-04
     86     (1,86)                3.78383976E-04
     87     (1,87)                1.71062571E-02
     88     (1,88)                1.31489220E-02
     89     (1,89)                2.70540502E-03
     90     (1,90)                4.18322618E-03
     91     (1,91)                3.00096726E-03
     92     (1,92)                1.71726382E-03
     93     (1,93)                7.86763125E-03
     94     (1,94)                1.40427374E-02
     95     (1,95)                3.40289378E-04
     96     (1,96)                3.31017533E-02
     97     (1,97)                3.17115903E-03
     98     (1,98)                3.52671526E-02
     99     (1,99)                1.10242323E-03
    100     (1,100)               7.10720918E-03
    101     (1,101)               1.11025183E-02
    102     (1,102)               2.40678092E-03
    103     (1,103)               2.01622500E-02
    104     (1,104)               1.67125901E-02
    105     (1,105)               4.70062359E-03
    106     (1,106)               3.15950128E-02
    107     (1,107)               1.77684332E-03
    108     (1,108)               2.59890097E-02
    109     (1,109)               2.39703541E-02
    110     (1,110)               7.06087605E-04
    111     (1,111)               8.89009772E-04
    112     (1,112)               9.22275751E-03
    113     (1,113)               3.33461130E-03
    114     (1,114)               7.59185333E-03
    115     (1,115)               2.19103314E-05
    116     (1,116)               2.26121063E-04
    117     (1,117)               1.59898645E-04
    118     (1,118)               1.39184872E-03
    119     (1,119)               5.18520059E-04
    120     (1,120)               3.37025760E-04
    121     (1,121)               4.68817725E-03
    122     (1,122)               1.58060007E-02
    123     (1,123)               5.24798707E-03
    124     (1,124)               4.06486873E-04
    125     (1,125)               1.50765578E-02
    126     (1,126)               9.25420704E-03
    127     (1,127)               4.68676442E-03
    128     (1,128)               1.28921983E-02
    129     (1,129)               1.10014859E-03
    130     (1,130)               0.13089293    
    131     (1,131)               9.68616028E-03
    132     (1,132)               1.03475457E-02
    133     (1,133)               3.85043218E-04
    134     (1,134)               3.16012744E-02
    135     (1,135)               1.79975873E-02
    136     (1,136)               5.68276519E-03
    137     (1,137)               2.73683595E-03
    138     (1,138)               1.08502152E-02
    139     (1,139)               1.52800829E-02
    140     (1,140)               1.63718159E-02
    141     (1,141)               4.71200135E-03
    142     (1,142)               3.63372473E-02
    143     (1,143)               2.05492903E-02
    144     (1,144)               1.66549555E-02
    145     (1,145)               5.16073861E-02
    146     (1,146)               2.20301504E-03
    147     (1,147)               4.74565460E-02
    148     (1,148)               4.64494335E-02
    149     (1,149)               6.82731042E-03
    150     (1,150)               9.60962577E-03
    151     (1,151)               2.70998694E-03
    152     (1,152)               8.59329670E-04
    153     (1,153)               7.41668198E-05
    154     (1,154)               7.53216685E-05
    155     (1,155)               6.09347700E-05
    156     (1,156)               6.79764774E-05
    157     (1,157)               5.57884746E-05
    158     (1,158)               6.24024616E-05
    159     (1,159)               6.07238492E-05
    160     (1,160)               7.24898723E-05
    161     (1,161)               5.40978902E-05
    162     (1,162)               5.93686945E-05
    163     (1,163)               5.93783020E-05
    164     (1,164)               7.98685715E-05
    165     (1,165)               7.79975587E-05
    166     (1,166)               6.04792596E-05
    167     (1,167)               5.36319213E-05
    168     (1,168)               6.95049222E-05
    169     (1,169)               4.71426302E-05
    170     (1,170)               5.85755400E-05
    171     (1,171)               5.62639314E-05
    172     (1,172)               7.33286189E-05
    173     (1,173)               8.47610256E-05
    174     (1,174)               6.75556746E-05
    175     (1,175)               1.44683011E-04
    176     (1,176)               5.21891888E-05
    177     (1,177)               1.00952690E-04
    178     (1,178)               1.38158669E-04
    179     (1,179)               4.01655990E-05
    180     (1,180)               6.15946005E-05
    181     (1,181)               5.18238741E-05
    182     (1,182)               8.04479327E-05
    183     (1,183)               6.56184194E-05
    184     (1,184)               3.44677586E-05
    185     (1,185)               6.09509668E-05
    186     (1,186)               9.99749189E-05
    187     (1,187)               6.24139537E-05
    188     (1,188)               5.86150649E-05
    189     (1,189)               5.92172029E-05
    190     (1,190)               4.94416096E-05
    191     (1,191)               6.51456175E-05
    192     (1,192)               7.34401445E-05
    193     (1,193)               4.38873915E-05
    194     (1,194)               1.41219068E-04
    195     (1,195)               5.30775120E-05
    196     (1,196)               5.25901974E-05
    197     (1,197)               4.97292747E-05
    198     (1,198)               1.47759305E-04
    199     (1,199)               7.02907571E-05
    200     (1,200)               6.98325025E-05
    201     (1,201)               1.10254794E-04
    202     (1,202)               5.25240146E-05
    203     (1,203)               5.43582634E-05
    204     (1,204)               6.12302937E-05
    205     (1,205)               0.26929692    
    206     (1,206)               7.61431158E-02
    207     (1,207)               4.35794589E-02
    208     (1,208)               2.52289646E-02
    209     (1,209)               9.08154615E-03
    210     (1,210)               6.14703065E-03
    211     (1,211)               1.19420658E-02
    212     (1,212)               2.17479330E-03
    213     (1,213)               7.59332671E-04
    214     (1,214)               9.81577662E-05
    215     (1,215)               1.03314824E-04
    216     (1,216)               4.03318557E-03
    217     (1,217)               2.47328820E-02
    218     (1,218)               6.14230243E-03
    219     (1,219)               3.95857478E-02
    220     (1,220)               8.05130710E-03
    221     (1,221)               2.60897019E-04
    222     (1,222)               2.57843062E-03
    223     (1,223)               3.31488510E-03
    224     (1,224)               1.90566552E-02
    225     (1,225)               2.03024628E-02
    226     (1,226)               5.56937819E-03
    227     (1,227)               1.95276946E-02
    228     (1,228)               2.25413732E-03
    229     (1,229)               1.70580130E-02
    230     (1,230)               2.32975769E-02
    231     (1,231)               1.85148375E-02
    232     (1,232)               9.96052483E-03
    233     (1,233)               3.16559796E-03
    234     (1,234)               0.20220808    
    235     (1,235)               0.11949891    
    236     (1,236)               0.22772121    
    237     (1,237)               3.55911620E-03
    238     (1,238)               2.06173016E-02
    239     (1,239)               3.91434649E-03
    240     (1,240)               1.27049404E-02
    241     (1,241)               5.42194486E-02
    242     (1,242)               0.27547123    
    243     (1,243)               8.81820516E-02
    244     (1,244)               7.39022309E-02
    245     (1,245)               0.17304549    
    246     (1,246)               3.54944576E-03
    247     (1,247)               2.30954298E-04
    248     (1,248)               2.46965825E-04
    249     (1,249)               1.07889436E-03
    250     (1,250)               6.98036311E-04
    251     (1,251)               4.76400323E-06
    252     (1,252)               5.76951947E-07
    253     (1,253)               3.83989397E-06
    254     (1,254)               9.18248271E-03
    255     (1,255)               4.56962679E-02
    256     (1,256)               7.55517342E-02
    257     (1,257)               5.30520455E-02
    258     (1,258)               2.92145521E-02
    259     (1,259)               4.69587848E-04
    260     (1,260)               0.0000000     
    261     (1,261)               0.0000000     
    262     (1,262)               0.0000000     
    263     (1,263)               0.0000000     
    264     (1,264)               0.0000000     
    265     (1,265)               0.0000000     
    266     (1,266)               0.0000000     
    267     (1,267)               0.0000000     
    268     (1,268)               0.0000000     
    269     (1,269)               0.0000000     
    270     (1,270)               0.0000000     
    271     (1,271)               0.0000000     
    272     (1,272)               0.0000000     
    273     (1,273)               0.0000000     
    274     (1,274)               0.0000000     
    275     (1,275)               0.0000000     
    276     (1,276)               0.0000000     
    277     (1,277)               0.0000000     
    278     (1,278)               0.0000000     
    279     (1,279)               0.0000000     
    280     (1,280)               0.0000000     
    281     (1,281)               0.0000000     
    282     (1,282)               0.0000000     
    283     (1,283)               0.0000000     
    284     (1,284)               0.0000000     
    285     (1,285)               0.0000000     
    286     (1,286)               0.0000000     
    287     (1,287)               0.0000000     
    288     (1,288)               0.0000000     
    289     (1,289)               0.0000000     
    290     (1,290)               0.0000000     
    291     (1,291)               0.0000000     
    292     (1,292)               0.0000000     
    293     (1,293)               0.0000000     
    294     (1,294)               0.0000000     
    295     (1,295)               0.0000000     
    296     (1,296)               0.0000000     
    297     (1,297)               0.0000000     
    298     (1,298)               0.0000000     
    299     (1,299)               0.0000000     
    300     (1,300)               0.0000000     
    301     (1,301)               0.0000000     
    302     (1,302)               0.0000000     
    303     (1,303)               0.0000000     
    304     (1,304)               0.0000000     
    305     (1,305)               0.0000000     
    306     (1,306)               0.0000000     
    307     (1,307)               0.0000000     
    308     (1,308)               0.0000000     
    309     (1,309)               0.0000000     
    310     (1,310)               0.0000000     
    311     (1,311)               0.0000000     
    312     (1,312)               0.0000000     
    313     (1,313)               0.0000000     
    314     (1,314)               0.0000000     
    315     (1,315)               0.0000000     
    316     (1,316)               0.0000000     
    317     (1,317)               0.0000000     
    318     (1,318)               0.0000000     
    319     (1,319)               0.0000000     
    320     (1,320)               0.0000000     
    321     (1,321)               0.0000000     
    322     (1,322)               0.0000000     
    323     (1,323)               0.0000000     
    324     (1,324)               0.0000000     
    325     (1,325)               0.0000000     
    326     (1,326)               0.0000000     
    327     (1,327)               0.0000000     
    328     (1,328)               0.0000000     
    329     (1,329)               0.0000000     
    330     (1,330)               0.0000000     
    331     (1,331)               0.0000000     
    332     (1,332)               0.0000000     
    333     (1,333)               0.0000000     
    334     (1,334)               0.0000000     
    335     (1,335)               0.0000000     
    336     (1,336)               0.0000000     
    337     (1,337)               0.0000000     
    338     (1,338)               0.0000000     
    339     (1,339)               0.0000000     
    340     (1,340)               0.0000000     
    341     (1,341)               0.0000000     
    342     (1,342)               0.0000000     
    343     (1,343)               0.0000000     
    344     (1,344)               0.0000000     
    345     (1,345)               0.0000000     
    346     (1,346)               0.0000000     
    347     (1,347)               0.0000000     
    348     (1,348)               0.0000000     
    349     (1,349)               0.0000000     
    350     (1,350)               0.0000000     
    351     (1,351)               0.0000000     
    352     (1,352)               0.0000000     
    353     (1,353)               0.0000000     
    354     (1,354)               0.0000000     
    355     (1,355)               0.0000000     
    356     (1,356)               0.0000000     
    357     (1,357)               0.0000000     
    358     (1,358)               0.0000000     
    359     (1,359)               0.0000000     
    360     (1,360)               0.0000000     
    361     (1,361)               0.0000000     
    362     (1,362)               0.0000000     
    363     (1,363)               0.0000000     
    364     (1,364)               0.0000000     
    365     (1,365)               0.0000000     
    366     (1,366)               0.0000000     
    367     (1,367)               0.0000000     
    368     (1,368)               0.0000000     
    369     (1,369)               0.0000000     
    370     (1,370)               0.0000000     
    371     (1,371)               0.0000000     
    372     (1,372)               0.0000000     
    373     (1,373)               0.0000000     
    374     (1,374)               0.0000000     
    375     (1,375)               0.0000000     
    376     (1,376)               0.0000000     
    377     (1,377)               0.0000000     
    378     (1,378)               0.0000000     
    379     (1,379)               0.0000000     
    380     (1,380)               0.0000000     
    381     (1,381)               0.0000000     
    382     (1,382)               0.0000000     
    383     (1,383)               0.0000000     
    384     (1,384)               0.0000000     
    385     (1,385)               0.0000000     
    386     (1,386)               0.0000000     
    387     (1,387)               0.0000000     
    388     (1,388)               0.0000000     
    389     (1,389)               0.0000000     
    390     (1,390)               0.0000000     
    391     (1,391)               0.0000000     
    392     (1,392)               0.0000000     
    393     (1,393)               0.0000000     
    394     (1,394)               0.0000000     
    395     (1,395)               0.0000000     
    396     (1,396)               0.0000000     
    397     (1,397)               0.0000000     
    398     (1,398)               0.0000000     
    399     (1,399)               0.0000000     
    400     (1,400)               0.0000000     
    401     (1,401)               0.0000000     
    402     (1,402)               0.0000000     
    403     (1,403)               0.0000000     
    404     (1,404)               0.0000000     
    405     (1,405)               0.0000000     
    406     (1,406)               0.0000000     
    407     (1,407)               0.0000000     
    408     (1,408)               0.0000000     
    409     (1,409)               0.0000000     
    410     (1,410)               0.0000000     
    411     (1,411)               0.0000000     
    412     (1,412)               0.0000000     
    413     (1,413)               0.0000000     
    414     (1,414)               0.0000000     
    415     (1,415)               0.0000000     
    416     (1,416)               0.0000000     
    417     (1,417)               0.0000000     
    418     (1,418)               0.0000000     
    419     (1,419)               0.0000000     
    420     (1,420)               0.0000000     
    421     (1,421)               0.0000000     
    422     (1,422)               0.0000000     
    423     (1,423)               0.0000000     
    424     (1,424)               0.0000000     
    425     (1,425)               0.0000000     
    426     (1,426)               0.0000000     
    427     (1,427)               0.0000000     
    428     (1,428)               0.0000000     
    429     (1,429)               0.0000000     
    430     (1,430)               0.0000000     
    431     (1,431)               0.0000000     
    432     (1,432)               0.0000000     
    433     (1,433)               0.0000000     
    434     (1,434)               0.0000000     
    435     (1,435)               0.0000000     
    436     (1,436)               0.0000000     
    437     (1,437)               0.0000000     
    438     (1,438)               0.0000000     
    439     (1,439)               0.0000000     
    440     (1,440)               0.0000000     
    441     (1,441)               0.0000000     
    442     (1,442)               0.0000000     
    443     (1,443)               0.0000000     
    444     (1,444)               0.0000000     
    445     (1,445)               0.0000000     
    446     (1,446)               0.0000000     
    447     (1,447)               0.0000000     
    448     (1,448)               0.0000000     
    449     (1,449)               0.0000000     
    450     (1,450)               0.0000000     
    451     (1,451)               0.0000000     
    452     (1,452)               0.0000000     
    453     (1,453)               0.0000000     
    454     (1,454)               0.0000000     
    455     (1,455)               0.0000000     
    456     (1,456)               0.0000000     
    457     (1,457)               0.0000000     
    458     (1,458)               0.0000000     
    459     (1,459)               0.0000000     
    460     (1,460)               0.0000000     
    461     (1,461)               0.0000000     
    462     (1,462)               0.0000000     
    463     (1,463)               0.0000000     
    464     (1,464)               0.0000000     
    465     (1,465)               0.0000000     
    466     (1,466)               0.0000000     
    467     (1,467)               0.0000000     
    468     (1,468)               0.0000000     
    469     (1,469)               0.0000000     
    470     (1,470)               0.0000000     
    471     (1,471)               0.0000000     
    472     (1,472)               0.0000000     
    473     (1,473)               0.0000000     
    474     (1,474)               0.0000000     
    475     (1,475)               0.0000000     
    476     (1,476)               0.0000000     
    477     (1,477)               0.0000000     
    478     (1,478)               0.0000000     
    479     (1,479)               0.0000000     
    480     (1,480)               0.0000000     
    481     (1,481)               0.0000000     
    482     (1,482)               0.0000000     
    483     (1,483)               0.0000000     
    484     (1,484)               0.0000000     
    485     (1,485)               0.0000000     
    486     (1,486)               0.0000000     
    487     (1,487)               0.0000000     
    488     (1,488)               0.0000000     
    489     (1,489)               0.0000000     
    490     (1,490)               0.0000000     
    491     (1,491)               0.0000000     
    492     (1,492)               0.0000000     
    493     (1,493)               0.0000000     
    494     (1,494)               0.0000000     
    495     (1,495)               0.0000000     
    496     (1,496)               0.0000000     
    497     (1,497)               0.0000000     
    498     (1,498)               0.0000000     
    499     (1,499)               0.0000000     
    500     (1,500)               0.0000000     
    501     (1,501)               0.0000000     
    502     (1,502)               0.0000000     
    503     (1,503)               0.0000000     
    504     (1,504)               0.0000000     
    505     (1,505)               0.0000000     
    506     (1,506)               0.0000000     
    507     (1,507)               0.0000000     
    508     (1,508)               0.0000000     
    509     (1,509)               0.0000000     
    510     (1,510)               0.0000000     
    511     (1,511)               0.0000000     
    512     (1,512)               0.0000000     
    513     (1,513)               0.0000000     
    514     (1,514)               0.0000000     
    515     (1,515)               0.0000000     
    516     (1,516)               0.0000000     
    517     (1,517)               0.0000000     
    518     (1,518)               0.0000000     
    519     (1,519)               0.0000000     
    520     (1,520)               0.0000000     
    521     (1,521)               0.0000000     
    522     (1,522)               0.0000000     
    523     (1,523)               0.0000000     
    524     (1,524)               0.0000000     
    525     (1,525)               0.0000000     
    526     (1,526)               0.0000000     
    527     (1,527)               0.0000000     
    528     (1,528)               0.0000000     
    529     (1,529)               0.0000000     
    530     (1,530)               0.0000000     
    531     (1,531)               0.0000000     
    532     (1,532)               0.0000000     
    533     (1,533)               0.0000000     
    534     (1,534)               0.0000000     
    535     (1,535)               0.0000000     
    536     (1,536)               0.0000000     
    537     (1,537)               0.0000000     
    538     (1,538)               0.0000000     
    539     (1,539)               0.0000000     
    540     (1,540)               0.0000000     
    541     (1,541)               0.0000000     
    542     (1,542)               0.0000000     
    543     (1,543)               0.0000000     
    544     (1,544)               0.0000000     
    545     (1,545)               0.0000000     
    546     (1,546)               0.0000000     
    547     (1,547)               0.0000000     
    548     (1,548)               0.0000000     
    549     (1,549)               0.0000000     
    550     (1,550)               0.0000000     
    551     (1,551)               0.0000000     
    552     (1,552)               0.0000000     
    553     (1,553)               0.0000000     
    554     (1,554)               0.0000000     
    555     (1,555)               0.0000000     
    556     (1,556)               0.0000000     
    557     (1,557)               0.0000000     
    558     (1,558)               0.0000000     
    559     (1,559)               0.0000000     
    560     (1,560)               0.0000000     
    561     (1,561)               0.0000000     
    562     (1,562)               0.0000000     
    563     (1,563)               0.0000000     
    564     (1,564)               0.0000000     
    565     (1,565)               0.0000000     
    566     (1,566)               0.0000000     
    567     (1,567)               0.0000000     
    568     (1,568)               0.0000000     
    569     (1,569)               0.0000000     
    570     (1,570)               0.0000000     
    571     (1,571)               0.0000000     
    572     (1,572)               0.0000000     
    573     (1,573)               0.0000000     
    574     (1,574)               0.0000000     
    575     (1,575)               0.0000000     
    576     (1,576)               0.0000000     
    577     (1,577)               0.0000000     
    578     (1,578)               0.0000000     
    579     (1,579)               0.0000000     
    580     (1,580)               0.0000000     
    581     (1,581)               0.0000000     
    582     (1,582)               0.0000000     
    583     (1,583)               0.0000000     
    584     (1,584)               0.0000000     
    585     (1,585)               0.0000000     
    586     (1,586)               0.0000000     
    587     (1,587)               0.0000000     
    588     (1,588)               0.0000000     
    589     (1,589)               0.0000000     
    590     (1,590)               0.0000000     
    591     (1,591)               0.0000000     
    592     (1,592)               0.0000000     
    593     (1,593)               0.0000000     
    594     (1,594)               0.0000000     
    595     (1,595)               0.0000000     
    596     (1,596)               0.0000000     
    597     (1,597)               0.0000000     
    598     (1,598)               0.0000000     
    599     (1,599)               0.0000000     
    600     (1,600)               0.0000000     
    601     (1,601)               0.0000000     
    602     (1,602)               0.0000000     
    603     (1,603)               0.0000000     
    604     (1,604)               0.0000000     
    605     (1,605)               0.0000000     
    606     (1,606)               0.0000000     
    607     (1,607)               0.0000000     
    608     (1,608)               0.0000000     
    609     (1,609)               0.0000000     
    610     (1,610)               0.0000000     
    611     (1,611)               0.0000000     
    612     (1,612)               0.0000000     
    613     (1,613)               0.0000000     
    614     (1,614)               0.0000000     
    615     (1,615)               0.0000000     
    616     (1,616)               0.0000000     
    617     (1,617)               0.0000000     
    618     (1,618)               0.0000000     
    619     (1,619)               0.0000000     
    620     (1,620)               0.0000000     
    621     (1,621)               0.0000000     
    622     (1,622)               0.0000000     
    623     (1,623)               0.0000000     
    624     (1,624)               0.0000000     
    625     (1,625)               0.0000000     
    626     (1,626)               0.0000000     
    627     (1,627)               0.0000000     
    628     (1,628)               0.0000000     
    629     (1,629)               0.0000000     
    630     (1,630)               0.0000000     
    631     (1,631)               0.0000000     
    632     (1,632)               0.0000000     
    633     (1,633)               0.0000000     
    634     (1,634)               0.0000000     
    635     (1,635)               0.0000000     
    636     (1,636)               0.0000000     
    637     (1,637)               0.0000000     
    638     (1,638)               0.0000000     
    639     (1,639)               0.0000000     
    640     (1,640)               0.0000000     
    641     (1,641)               0.0000000     
    642     (1,642)               0.0000000     
    643     (1,643)               4.37953034E-05
    644     (1,644)               8.60349853E-05
    645     (1,645)               9.86613403E-05
    646     (1,646)               1.42277312E-04
    647     (1,647)               2.30497140E-04
    648     (1,648)               2.72558585E-04
    649     (1,649)               8.34199769E-05
    650     (1,650)               7.42050585E-06
    651     (1,651)               8.67184096E-06
    652     (1,652)               1.05320701E-07
    653     (1,653)               9.17775996E-08
    654     (1,654)               3.53003815E-05
    655     (1,655)               3.36565816E-04
    656     (1,656)               2.27737484E-04
    657     (1,657)               4.59731244E-05
    658     (1,658)               5.49887595E-05
    659     (1,659)               1.74217741E-04
    660     (1,660)               1.11959533E-04
    661     (1,661)               1.43404612E-04
    662     (1,662)               1.96314164E-04
    663     (1,663)               1.03934567E-04
    664     (1,664)               7.00234238E-05
    665     (1,665)               9.36668482E-06
    666     (1,666)               7.34789175E-06
    667     (1,667)               1.47999899E-04
    668     (1,668)               6.88192428E-05
    669     (1,669)               5.50621681E-05
    670     (1,670)               9.13359467E-05
    671     (1,671)               7.97741379E-05
    672     (1,672)               3.72337347E-05
    673     (1,673)               1.79443745E-06
    674     (1,674)               1.22881028E-06
    675     (1,675)               1.01610953E-04
    676     (1,676)               1.22986416E-06
    677     (1,677)               1.53979427E-06
    678     (1,678)               4.90444851E-07
    679     (1,679)               7.47210884E-07
    680     (1,680)               1.91560779E-05
    681     (1,681)               1.02170429E-04
    682     (1,682)               5.18428674E-05
    683     (1,683)               2.98734656E-05
    684     (1,684)               2.40320631E-05
    685     (1,685)               3.84926408E-05
    686     (1,686)               6.87013641E-06
    687     (1,687)               4.50747123E-07
    688     (1,688)               5.78460981E-07
    689     (1,689)               4.39313533E-05
    690     (1,690)               1.99234695E-05
    691     (1,691)               2.63542546E-05
    692     (1,692)               9.09324172E-05
    693     (1,693)               2.22523017E-04
    694     (1,694)               1.19925762E-04
    695     (1,695)               3.85562470E-07
    696     (1,696)               2.15541908E-07
    697     (1,697)               1.69193285E-06
    698     (1,698)               6.28464687E-05
    699     (1,699)               5.51855799E-05
    700     (1,700)               3.06399177E-05
    701     (1,701)               2.91754953E-06
    702     (1,702)               2.85886895E-06
    703     (1,703)               1.73862716E-05
    704     (1,704)               3.28956257E-07
    705     (1,705)               2.40265715E-07
    706     (1,706)               7.76629657E-05
    707     (1,707)               4.37272903E-05
    708     (1,708)               3.29743805E-05
    709     (1,709)               3.92531037E-08
    710     (1,710)               4.05585249E-08
    711     (1,711)               1.74568752E-06
    712     (1,712)               3.06365607E-07
    713     (1,713)               3.07912769E-07
    714     (1,714)               2.59001518E-05
    715     (1,715)               7.19364652E-05
    716     (1,716)               2.91390640E-05
    717     (1,717)               9.07657615E-06
    718     (1,718)               5.36025838E-06
    719     (1,719)               1.58475104E-05
    720     (1,720)               1.78357358E-05
    721     (1,721)               2.78652779E-07
    722     (1,722)               1.96199233E-07
    723     (1,723)               1.31653571E-05
    724     (1,724)               8.57337437E-06
    725     (1,725)               8.07695716E-08
    726     (1,726)               7.95997089E-08
    727     (1,727)               9.22348169E-05
    728     (1,728)               2.09937091E-05
    729     (1,729)               3.82458066E-07
    730     (1,730)               4.97634876E-07
    731     (1,731)               1.24107936E-05
    732     (1,732)               1.21632656E-04
    733     (1,733)               5.60829046E-04
    734     (1,734)               7.44069158E-04
    735     (1,735)               6.85193766E-04
    736     (1,736)               6.70367760E-04
    737     (1,737)               7.89329265E-04
    738     (1,738)               5.47867727E-04
    739     (1,739)               5.47636494E-04
    740     (1,740)               6.19991995E-04
    741     (1,741)               6.25726864E-04
    742     (1,742)               5.08024251E-04
    743     (1,743)               2.43010995E-04
    744     (1,744)               3.49632944E-04
    745     (1,745)               4.37044054E-04
    746     (1,746)               3.07813130E-04
    747     (1,747)               4.26674158E-04
    748     (1,748)               5.62671216E-04
    749     (1,749)               4.79754281E-04
    750     (1,750)               5.79719957E-04
    751     (1,751)               2.71720593E-04
    752     (1,752)               3.78945765E-04
    753     (1,753)               5.02062199E-04
    754     (1,754)               7.57842541E-04
    755     (1,755)               5.21229242E-04
    756     (1,756)               5.21000496E-04
    757     (1,757)               5.94559366E-04
    758     (1,758)               6.00756345E-04
    759     (1,759)               4.60626786E-04
    760     (1,760)               1.52792137E-04
    761     (1,761)               4.34076005E-06
    762     (1,762)               2.92820614E-06
    763     (1,763)               3.35440903E-06
    764     (1,764)               5.42354900E-06
    765     (1,765)               1.50203816E-04
    766     (1,766)               5.02389184E-05
    767     (1,767)               1.69412170E-05
    768     (1,768)               1.79284403E-05
    769     (1,769)               6.14698751E-06
    770     (1,770)               2.91791421E-06
    771     (1,771)               6.48246008E-06
    772     (1,772)               1.49814275E-04
    773     (1,773)               9.98737279E-05
    774     (1,774)               2.51368613E-05
    775     (1,775)               6.31764403E-06
    776     (1,776)               9.35159305E-06
    777     (1,777)               1.76523899E-04
    778     (1,778)               2.87621639E-04
    779     (1,779)               4.26284919E-05
    780     (1,780)               4.25856459E-05
    781     (1,781)               1.77490110E-04
    782     (1,782)               1.01874760E-04
    783     (1,783)               2.05637384E-06
    784     (1,784)               2.24218062E-06
    785     (1,785)               1.87958947E-04
    786     (1,786)               6.55667468E-04
    787     (1,787)               5.11477200E-04
    788     (1,788)               6.26501672E-04
    789     (1,789)               6.58566769E-04
    790     (1,790)               6.46445136E-04
    791     (1,791)               6.57910757E-04
    792     (1,792)               5.17406095E-04
    793     (1,793)               5.52333754E-04
    794     (1,794)               7.12218342E-04
    795     (1,795)               3.38820116E-04
    796     (1,796)               1.43688079E-04
    797     (1,797)               3.76789933E-05
    798     (1,798)               3.35083203E-05
    799     (1,799)               7.52386184E-05
    800     (1,800)               2.12294200E-05
    801     (1,801)               1.52810698E-05
    802     (1,802)               5.36929114E-05
    803     (1,803)               9.04314025E-05
    804     (1,804)               4.23135308E-04
    805     (1,805)               2.87891928E-04
    806     (1,806)               1.52901813E-04
    807     (1,807)               2.36540779E-06
    808     (1,808)               3.23953619E-06
    809     (1,809)               2.21596993E-04
    810     (1,810)               2.83618231E-04
    811     (1,811)               2.97945630E-05
    812     (1,812)               2.69907531E-05
    813     (1,813)               2.68112424E-04
    814     (1,814)               3.07468532E-04
    815     (1,815)               3.81986867E-05
    816     (1,816)               9.60075984E-06
    817     (1,817)               5.33222032E-07
    818     (1,818)               5.99851772E-07
    819     (1,819)               3.17824276E-04
    820     (1,820)               4.49912464E-04
    821     (1,821)               3.49835428E-04
    822     (1,822)               1.18446086E-04
    823     (1,823)               8.22250916E-05
    824     (1,824)               3.33284133E-05
    825     (1,825)               3.44463185E-05
    826     (1,826)               4.02581367E-04
    827     (1,827)               7.69597937E-04
    828     (1,828)               3.51337178E-04
    829     (1,829)               3.44880350E-05
    830     (1,830)               2.11079158E-05
    831     (1,831)               3.32757372E-05
    832     (1,832)               6.00831110E-05
    833     (1,833)               1.22048355E-04
    834     (1,834)               1.16153515E-04
    835     (1,835)               3.17064375E-04
    836     (1,836)               5.23664583E-04
    837     (1,837)               3.93013467E-04
    838     (1,838)               6.75704432E-04
    839     (1,839)               6.75630636E-04
    840     (1,840)               5.62535372E-04
    841     (1,841)               5.78139009E-04
    842     (1,842)               4.65479442E-04
    843     (1,843)               4.51699836E-04
    844     (1,844)               2.76003503E-04
    845     (1,845)               5.80846133E-05
    846     (1,846)               2.01016237E-05
    847     (1,847)               5.36572307E-08
    848     (1,848)               3.75098799E-08
    849     (1,849)               1.79009004E-05
    850     (1,850)               1.01335444E-04
    851     (1,851)               3.49237691E-04
    852     (1,852)               9.62138484E-05
    853     (1,853)               2.02019843E-05
    854     (1,854)               4.42562727E-05
    855     (1,855)               1.29499532E-04
    856     (1,856)               2.33710619E-05
    857     (1,857)               1.94573010E-05
    858     (1,858)               2.35936477E-04
    859     (1,859)               3.16667310E-04
    860     (1,860)               2.78384628E-04
    861     (1,861)               1.96924358E-04
    862     (1,862)               8.57986209E-05
    863     (1,863)               1.04132294E-04
    864     (1,864)               3.02712013E-04
    865     (1,865)               3.61423443E-05
    866     (1,866)               2.82726041E-05
    867     (1,867)               1.21649659E-04
    868     (1,868)               4.34517894E-05
    869     (1,869)               4.55778575E-06
    870     (1,870)               9.14891841E-06
    871     (1,871)               2.69848137E-04
    872     (1,872)               2.35181821E-04
    873     (1,873)               3.00366965E-05
    874     (1,874)               2.66737195E-05
    875     (1,875)               1.62592402E-04
    876     (1,876)               2.30487729E-04
    877     (1,877)               2.79117983E-04
    878     (1,878)               7.34558306E-04
    879     (1,879)               3.58674908E-04
    880     (1,880)               1.47612584E-04
    881     (1,881)               3.32391255E-05
    882     (1,882)               8.56873363E-05
    883     (1,883)               1.33448520E-04
    884     (1,884)               2.34115663E-05
    885     (1,885)               2.05242595E-05
    886     (1,886)               3.05311119E-05
    887     (1,887)               4.54310210E-05
    888     (1,888)               2.57521988E-04
    889     (1,889)               3.29152712E-04
    890     (1,890)               2.33409896E-05
    891     (1,891)               1.29904053E-05
    892     (1,892)               3.09887266E-04
    893     (1,893)               5.00109704E-04
    894     (1,894)               1.67067011E-04
    895     (1,895)               6.24130505E-05
    896     (1,896)               3.63955408E-06
    897     (1,897)               1.57544647E-06
    898     (1,898)               1.72544710E-06
    899     (1,899)               5.73982194E-06
    900     (1,900)               1.29688326E-04
    901     (1,901)               2.99113021E-04
    902     (1,902)               1.47566515E-04
    903     (1,903)               4.25457171E-07
    904     (1,904)               1.92795093E-07
    905     (1,905)               2.52771986E-06
    906     (1,906)               9.45582242E-06
    907     (1,907)               6.80440017E-06
    908     (1,908)               2.85169238E-05
    909     (1,909)               1.49048236E-04
    910     (1,910)               2.20985821E-04
    911     (1,911)               2.61272411E-04
    912     (1,912)               5.21464481E-04
    913     (1,913)               2.92874674E-04
    914     (1,914)               8.29604979E-06
    915     (1,915)               5.13538555E-06
    916     (1,916)               3.01888854E-05
    917     (1,917)               1.56148973E-04
    918     (1,918)               4.14102121E-04
    919     (1,919)               2.27439712E-04
    920     (1,920)               2.32629160E-04
    921     (1,921)               1.43619652E-04
    922     (1,922)               5.50168454E-05
    923     (1,923)               2.18936298E-05
    924     (1,924)               2.82680992E-05
    925     (1,925)               2.13450908E-04
    926     (1,926)               5.65058511E-04
    927     (1,927)               6.17901167E-04
    928     (1,928)               5.78717331E-04
    929     (1,929)               4.60048468E-04
    930     (1,930)               2.57173673E-04
    931     (1,931)               2.37216256E-05
    932     (1,932)               4.12388958E-06
    933     (1,933)               8.41680105E-06
    934     (1,934)               9.18916684E-05
    935     (1,935)               3.77882094E-04
    936     (1,936)               5.15009531E-04
    937     (1,937)               1.31136417E-04
    938     (1,938)               1.54655711E-04
    939     (1,939)               3.68376477E-04
    940     (1,940)               1.32893816E-05
    941     (1,941)               2.25650433E-05
    942     (1,942)               3.09589667E-04
    943     (1,943)               2.89285639E-04
    944     (1,944)               2.70601522E-05
    945     (1,945)               2.58857053E-05
    946     (1,946)               2.45531838E-04
    947     (1,947)               2.54193066E-04
    948     (1,948)               3.59100778E-05
    949     (1,949)               2.83540370E-05
    950     (1,950)               1.66825936E-05
    951     (1,951)               7.48556091E-06
    952     (1,952)               4.23599331E-06
    953     (1,953)               5.62600065E-06
    954     (1,954)               5.12294823E-06
    955     (1,955)               6.26561020E-06
    956     (1,956)               2.72778217E-05
    957     (1,957)               9.62182937E-07
    958     (1,958)               9.15344156E-07
    959     (1,959)               1.84761042E-05
    960     (1,960)               2.83367401E-09
    961     (1,961)               1.25897606E-05
    962     (1,962)               1.23994730E-06
    963     (1,963)               8.24853003E-07
    964     (1,964)               2.13259282E-06
    965     (1,965)               7.79698858E-08
    966     (1,966)               8.81026964E-08
    967     (1,967)               3.01857461E-05
    968     (1,968)               2.22264477E-05
    969     (1,969)               1.85592380E-05
    970     (1,970)               1.31897665E-05
    971     (1,971)               2.09015818E-05
    972     (1,972)               7.27884348E-07
    973     (1,973)               6.68111208E-07
    974     (1,974)               9.70277655E-06
    975     (1,975)               1.70357096E-04
    976     (1,976)               3.96518731E-05
    977     (1,977)               1.47870770E-05
    978     (1,978)               7.63501240E-06
    979     (1,979)               9.96294527E-06
    980     (1,980)               1.82734466E-05
    981     (1,981)               1.93532039E-05
    982     (1,982)               2.64442153E-08
    983     (1,983)               2.55548766E-08
    984     (1,984)               8.49365440E-06
    985     (1,985)               1.00923316E-05
    986     (1,986)               8.89824360E-06
    987     (1,987)               1.24806297E-04
    988     (1,988)               3.96250471E-05
    989     (1,989)               2.52508385E-05
    990     (1,990)               8.68237614E-05
    991     (1,991)               2.50682978E-05
    992     (1,992)               3.48183172E-06
    993     (1,993)               5.53777913E-06
    994     (1,994)               5.70061215E-05
    995     (1,995)               6.31601932E-05
    996     (1,996)               3.64533471E-05
    997     (1,997)               3.77353807E-05
    998     (1,998)               6.90115361E-05
    999     (1,999)               1.37770775E-04
    1000    (1,1000)              9.63031552E-05
    1001    (1,1001)              9.83593805E-05
    1002    (1,1002)              7.02097906E-05
    1003    (1,1003)              7.01389736E-05
    1004    (1,1004)              6.19618366E-05
    1005    (1,1005)              2.75746112E-05
    1006    (1,1006)              6.82665355E-06
    1007    (1,1007)              3.25430109E-06
    1008    (1,1008)              1.62364323E-05
    1009    (1,1009)              2.29629364E-05
    1010    (1,1010)              3.49400708E-05
    1011    (1,1011)              3.25442512E-05
    1012    (1,1012)              1.60006645E-05
    1013    (1,1013)              1.39098724E-05
    1014    (1,1014)              3.22292638E-05
    1015    (1,1015)              1.00393611E-04
    1016    (1,1016)              5.10157665E-06
    1017    (1,1017)              4.42228005E-06
    1018    (1,1018)              9.61909966E-08
    1019    (1,1019)              8.08183410E-08
    1020    (1,1020)              7.74379644E-06
    1021    (1,1021)              7.37214981E-06
    1022    (1,1022)              6.88593075E-07
    1023    (1,1023)              9.04124239E-08
    1024    (1,1024)              8.56955176E-08
    1025    (1,1025)              2.62888230E-05
    1026    (1,1026)              2.23447671E-05
    1027    (1,1027)              1.53149088E-05
    1028    (1,1028)              1.90920245E-06
    1029    (1,1029)              8.99145192E-07
    1030    (1,1030)              2.78141532E-06
    1031    (1,1031)              1.06696136E-05
    1032    (1,1032)              1.92887859E-05
    1033    (1,1033)              5.14295274E-05
    1034    (1,1034)              4.33877015E-05
    1035    (1,1035)              2.17900532E-05
    1036    (1,1036)              1.50509109E-05
    1037    (1,1037)              1.32011248E-05
    1038    (1,1038)              8.96633895E-07
    1039    (1,1039)              1.96605549E-08
    1040    (1,1040)              2.32385301E-08
    1041    (1,1041)              1.82768322E-05
    1042    (1,1042)              8.09584333E-06
    1043    (1,1043)              1.29499631E-05
    1044    (1,1044)              7.65647603E-06
    1045    (1,1045)              4.83257506E-06
    1046    (1,1046)              5.03646262E-05
    1047    (1,1047)              8.31479094E-05
    1048    (1,1048)              2.08079800E-05
    1049    (1,1049)              2.48727298E-05
    1050    (1,1050)              1.43255827E-04
    1051    (1,1051)              1.54084149E-04
    1052    (1,1052)              1.38848583E-04
    1053    (1,1053)              6.18142414E-06
    1054    (1,1054)              4.53884354E-06
    1055    (1,1055)              2.04220287E-05
    1056    (1,1056)              4.22902425E-06
    1057    (1,1057)              3.90008430E-06
    1058    (1,1058)              6.25509508E-06
    1059    (1,1059)              6.83324647E-06
    1060    (1,1060)              6.59747753E-05
    1061    (1,1061)              1.19590299E-04
    1062    (1,1062)              7.41522274E-06
    1063    (1,1063)              6.67871567E-06
    1064    (1,1064)              6.12598278E-06
    1065    (1,1065)              6.16924767E-06
    1066    (1,1066)              1.94571617E-06
    1067    (1,1067)              2.20895780E-06
    1068    (1,1068)              1.82218505E-05
    1069    (1,1069)              4.17981013E-05
    1070    (1,1070)              5.78812665E-05
    1071    (1,1071)              1.57435624E-04
    1072    (1,1072)              4.74061344E-04
    1073    (1,1073)              7.40803364E-04
    1074    (1,1074)              3.23006595E-04
    1075    (1,1075)              3.49839206E-05
    1076    (1,1076)              3.02703901E-05
    1077    (1,1077)              1.37785335E-04
    1078    (1,1078)              6.71529692E-07
    1079    (1,1079)              6.56129484E-07
    1080    (1,1080)              2.79200311E-06
    1081    (1,1081)              1.48189576E-06
    1082    (1,1082)              2.07048223E-08
    1083    (1,1083)              2.11215243E-08
    1084    (1,1084)              7.84025174E-06
    1085    (1,1085)              1.17960260E-05
    1086    (1,1086)              2.24873695E-06
    1087    (1,1087)              8.41593086E-08
    1088    (1,1088)              1.08170421E-07
    1089    (1,1089)              2.17729176E-06
    1090    (1,1090)              1.64093277E-06
    1091    (1,1091)              6.45821236E-07
    1092    (1,1092)              1.27675040E-06
    1093    (1,1093)              3.50991515E-05
    1094    (1,1094)              2.16400347E-06
    1095    (1,1095)              1.74855570E-06
    1096    (1,1096)              4.86833540E-05
    1097    (1,1097)              7.97681970E-08
    1098    (1,1098)              8.70162548E-08
    1099    (1,1099)              5.63925786E-05
    1100    (1,1100)              1.50281630E-04
    1101    (1,1101)              5.19706864E-05
    1102    (1,1102)              2.59306719E-08
    1103    (1,1103)              2.08937799E-08
    1104    (1,1104)              9.59371186E-07
    1105    (1,1105)              2.75676681E-06
    1106    (1,1106)              2.82174947E-05
    1107    (1,1107)              6.56501551E-06
    1108    (1,1108)              3.23063383E-06
    1109    (1,1109)              1.26511407E-06
    1110    (1,1110)              1.46483875E-06
    1111    (1,1111)              4.55271606E-06
    1112    (1,1112)              5.61890327E-09
    1113    (1,1113)              5.17623781E-09
    1114    (1,1114)              1.15489516E-06
    1115    (1,1115)              1.07068907E-06
    1116    (1,1116)              1.94287257E-08
    1117    (1,1117)              1.98878507E-08
    1118    (1,1118)              4.15598746E-07
    1119    (1,1119)              2.53364605E-06
    1120    (1,1120)              8.18124281E-06
    1121    (1,1121)              1.93438708E-05
    1122    (1,1122)              1.13922977E-05
    1123    (1,1123)              6.28117404E-06
    1124    (1,1124)              5.81342629E-07
    1125    (1,1125)              1.00270906E-06
    1126    (1,1126)              2.34863467E-06
    1127    (1,1127)              8.16829737E-08
    1128    (1,1128)              9.24427264E-08
    1129    (1,1129)              2.19890614E-05
    1130    (1,1130)              4.00149153E-06
    1131    (1,1131)              1.03173606E-05
    1132    (1,1132)              5.41677934E-05
    1133    (1,1133)              5.19310187E-05
    1134    (1,1134)              2.39943283E-05
    1135    (1,1135)              1.33943951E-05
    1136    (1,1136)              6.33546075E-06
    1137    (1,1137)              1.22315734E-05
    1138    (1,1138)              1.18071960E-04
    1139    (1,1139)              2.85529934E-04
    1140    (1,1140)              9.24725642E-06
    1141    (1,1141)              4.22643648E-06
    1142    (1,1142)              6.85005954E-06
    1143    (1,1143)              8.63253304E-06
    1144    (1,1144)              8.58560860E-06
    1145    (1,1145)              1.33716931E-05
    1146    (1,1146)              3.50610116E-05
    1147    (1,1147)              2.70106752E-05
    1148    (1,1148)              3.39572417E-08
    1149    (1,1149)              4.43408631E-08
    1150    (1,1150)              3.91112927E-07
    1151    (1,1151)              5.19719566E-07
    1152    (1,1152)              6.69130581E-06
    1153    (1,1153)              1.83463684E-05
    1154    (1,1154)              4.57172018E-05
    1155    (1,1155)              1.03128939E-04
    1156    (1,1156)              8.71595488E-05
    1157    (1,1157)              3.08283551E-05
    1158    (1,1158)              5.07066272E-05
    1159    (1,1159)              2.71979884E-05
    1160    (1,1160)              1.43036125E-05
    1161    (1,1161)              1.31784723E-05
    1162    (1,1162)              3.17628569E-05
    1163    (1,1163)              2.60586371E-05
    1164    (1,1164)              2.56043232E-05
    1165    (1,1165)              3.71340446E-05
    1166    (1,1166)              6.37939297E-05
    1167    (1,1167)              1.06593599E-04
    1168    (1,1168)              7.59505453E-05
    1169    (1,1169)              1.07303590E-04
    1170    (1,1170)              1.42240834E-04
    1171    (1,1171)              1.14388343E-04
    1172    (1,1172)              1.44933867E-04
    1173    (1,1173)              3.15158257E-04
    1174    (1,1174)              2.00447530E-04
    1175    (1,1175)              4.42999560E-04
    1176    (1,1176)              2.76024350E-04
    1177    (1,1177)              4.09522587E-04
    1178    (1,1178)              7.67218747E-04
    1179    (1,1179)              4.00721249E-04
    1180    (1,1180)              1.35481824E-04
    1181    (1,1181)              1.56278821E-05
    1182    (1,1182)              1.56679262E-06
    1183    (1,1183)              1.83515616E-06
    1184    (1,1184)              7.53381604E-05
    1185    (1,1185)              2.50376059E-05
    1186    (1,1186)              9.41286876E-07
    1187    (1,1187)              8.18343844E-08
    1188    (1,1188)              1.06347819E-07
    1189    (1,1189)              9.78385445E-07
    1190    (1,1190)              1.29421378E-06
    1191    (1,1191)              1.62939000E-06
    1192    (1,1192)              1.74147598E-06
    1193    (1,1193)              1.07245270E-05
    1194    (1,1194)              1.35819651E-05
    1195    (1,1195)              3.38759974E-05
    1196    (1,1196)              7.69926529E-05
    1197    (1,1197)              5.28890849E-04
    1198    (1,1198)              5.70350656E-04
    1199    (1,1199)              2.17753259E-04
    1200    (1,1200)              1.90400369E-05
    1201    (1,1201)              5.23583147E-06
    1202    (1,1202)              1.45196506E-06
    1203    (1,1203)              1.87681971E-06
    1204    (1,1204)              4.51663472E-05
    1205    (1,1205)              3.12231121E-04
    1206    (1,1206)              5.01413698E-04
    1207    (1,1207)              3.45928160E-04
    1208    (1,1208)              1.42900999E-04
    1209    (1,1209)              2.27789398E-07
    1210    (1,1210)              1.28910578E-07
    1211    (1,1211)              2.06641491E-05
    1212    (1,1212)              5.80941288E-05
    1213    (1,1213)              9.92646969E-05
    1214    (1,1214)              1.75113393E-05
    1215    (1,1215)              2.32305204E-05
    1216    (1,1216)              3.81663285E-05
    1217    (1,1217)              1.88227330E-06
    1218    (1,1218)              1.15461648E-06
    1219    (1,1219)              2.03068728E-05
    1220    (1,1220)              3.92245970E-05
    1221    (1,1221)              3.84896590E-05
    1222    (1,1222)              3.57945819E-05
    1223    (1,1223)              2.03817780E-05
    1224    (1,1224)              1.74934505E-06
    1225    (1,1225)              1.00259981E-07
    1226    (1,1226)              9.84232005E-08
    1227    (1,1227)              8.58656859E-05
    1228    (1,1228)              3.70980321E-05
    1229    (1,1229)              1.53880144E-05
    1230    (1,1230)              9.75450928E-06
    1231    (1,1231)              2.09325975E-05
    1232    (1,1232)              1.03018792E-04
    1233    (1,1233)              4.61806241E-06
    1234    (1,1234)              4.84027416E-06
    1235    (1,1235)              5.51279810E-06
    1236    (1,1236)              4.34285858E-06
    1237    (1,1237)              5.45815410E-06
    1238    (1,1238)              7.33625399E-06
    1239    (1,1239)              5.45059256E-05
    1240    (1,1240)              1.28425054E-05
    1241    (1,1241)              1.12111915E-05
    1242    (1,1242)              1.29202032E-05
    1243    (1,1243)              1.22881555E-05
    1244    (1,1244)              5.33313243E-05
    1245    (1,1245)              7.72159392E-05
    1246    (1,1246)              7.76378827E-06
    1247    (1,1247)              8.55799112E-06
    1248    (1,1248)              3.56823215E-04
    1249    (1,1249)              3.15696026E-04
    1250    (1,1250)              3.41529390E-05
    1251    (1,1251)              1.84623428E-05
    1252    (1,1252)              4.40621254E-05
    1253    (1,1253)              2.32171902E-05
    1254    (1,1254)              2.74044050E-05
    1255    (1,1255)              4.12508067E-05
    1256    (1,1256)              8.44896766E-05
    1257    (1,1257)              1.88239146E-04
    1258    (1,1258)              5.20419685E-06
    1259    (1,1259)              5.16898156E-06
    1260    (1,1260)              1.28333330E-05
    1261    (1,1261)              2.62032352E-05
    1262    (1,1262)              1.26427422E-04
    1263    (1,1263)              3.55811747E-05
    1264    (1,1264)              5.37684952E-05
    1265    (1,1265)              2.20924421E-05
    1266    (1,1266)              1.13224054E-05
    1267    (1,1267)              6.20335664E-06
    1268    (1,1268)              5.50005191E-06
    1269    (1,1269)              1.74498437E-05
    1270    (1,1270)              1.20594421E-05
    1271    (1,1271)              2.60624989E-06
    1272    (1,1272)              2.70933812E-06
    1273    (1,1273)              2.72856746E-05
    1274    (1,1274)              3.69326474E-05
    1275    (1,1275)              1.16699974E-05
    1276    (1,1276)              9.29511531E-08
    1277    (1,1277)              7.23697212E-08
    1278    (1,1278)              3.82294475E-06
    1279    (1,1279)              2.27094948E-05
    1280    (1,1280)              6.35356675E-05
    1281    (1,1281)              1.21758328E-05
    1282    (1,1282)              9.67021423E-06
    1283    (1,1283)              9.20904711E-06
    1284    (1,1284)              1.06001257E-05
    1285    (1,1285)              5.43088604E-05
    1286    (1,1286)              2.02450944E-08
    1287    (1,1287)              2.54626126E-08
    1288    (1,1288)              2.40907375E-06
    1289    (1,1289)              1.16444287E-05
    1290    (1,1290)              4.48446431E-06
    1291    (1,1291)              7.91267315E-08
    1292    (1,1292)              8.11945162E-08
    1293    (1,1293)              1.04992225E-05
    1294    (1,1294)              9.69208701E-06
    1295    (1,1295)              2.59656081E-05
    1296    (1,1296)              2.51940282E-05
    1297    (1,1297)              7.54360220E-05
    1298    (1,1298)              1.51034866E-07
    1299    (1,1299)              1.63141320E-07
    1300    (1,1300)              2.64238422E-05
    1301    (1,1301)              2.20526983E-04
    1302    (1,1302)              1.39997325E-05
    1303    (1,1303)              1.27122142E-05
    1304    (1,1304)              7.00231483E-05
    1305    (1,1305)              5.40329423E-05
    1306    (1,1306)              7.31739985E-05
    1307    (1,1307)              1.49794701E-05
    1308    (1,1308)              3.59397329E-06
    1309    (1,1309)              6.41698160E-06
    1310    (1,1310)              7.45639122E-05
    1311    (1,1311)              1.01187954E-04
    1312    (1,1312)              9.90594785E-05
    1313    (1,1313)              1.55053449E-04
    1314    (1,1314)              2.85880193E-06
    1315    (1,1315)              1.85966744E-06
    1316    (1,1316)              6.59849732E-09
    1317    (1,1317)              5.53528334E-09
    1318    (1,1318)              2.85349983E-06
    1319    (1,1319)              4.52009442E-05
    1320    (1,1320)              7.76577901E-05
    1321    (1,1321)              1.27206045E-05
    1322    (1,1322)              1.04372394E-05
    1323    (1,1323)              2.88527015E-09
    1324    (1,1324)              9.24001744E-07
    1325    (1,1325)              1.03091512E-05
    1326    (1,1326)              1.92689926E-04
    1327    (1,1327)              2.47440182E-06
    1328    (1,1328)              2.02642784E-06
    1329    (1,1329)              2.44220740E-05
    1330    (1,1330)              5.78657414E-06
    1331    (1,1331)              7.94911734E-06
    1332    (1,1332)              1.55946341E-05
    1333    (1,1333)              5.33166920E-06
    1334    (1,1334)              1.29994879E-09
    1335    (1,1335)              1.38859871E-09
    1336    (1,1336)              7.77402438E-06
    1337    (1,1337)              2.92169465E-05
    1338    (1,1338)              9.28876969E-06
    1339    (1,1339)              8.46248047E-06
    1340    (1,1340)              1.23353880E-04
    1341    (1,1341)              8.56826979E-05
    1342    (1,1342)              1.20172085E-04
    1343    (1,1343)              2.71120194E-05
    1344    (1,1344)              2.36864076E-05
    1345    (1,1345)              3.36991132E-05
    1346    (1,1346)              2.07437325E-05
    1347    (1,1347)              1.61125065E-06
    1348    (1,1348)              1.75485637E-06
    1349    (1,1349)              3.08381448E-06
    1350    (1,1350)              4.84025944E-06
    1351    (1,1351)              1.41809810E-04
    1352    (1,1352)              7.40748109E-05
    1353    (1,1353)              1.41019832E-05
    1354    (1,1354)              6.67840098E-06
    1355    (1,1355)              6.80165795E-06
    1356    (1,1356)              2.46107021E-06
    1357    (1,1357)              2.76504145E-06
    1358    (1,1358)              2.56615893E-05
    1359    (1,1359)              1.78346944E-04
    1360    (1,1360)              2.64412436E-05
    1361    (1,1361)              1.81159438E-08
    1362    (1,1362)              2.40156003E-08
    1363    (1,1363)              4.47968196E-06
    1364    (1,1364)              1.46582156E-05
    1365    (1,1365)              3.00630180E-06
    1366    (1,1366)              4.25792867E-09
    1367    (1,1367)              4.85865818E-09
    1368    (1,1368)              1.80358393E-06
    1369    (1,1369)              9.47215745E-07
    1370    (1,1370)              9.11971791E-06
    1371    (1,1371)              1.76177769E-05
    1372    (1,1372)              2.39838870E-05
    1373    (1,1373)              1.78510965E-05
    1374    (1,1374)              2.24060171E-05
    1375    (1,1375)              9.44556318E-05
    1376    (1,1376)              4.93637527E-05
    1377    (1,1377)              5.47934317E-06
    1378    (1,1378)              3.62143814E-06
    1379    (1,1379)              1.27732059E-06
    1380    (1,1380)              1.28288798E-06
    1381    (1,1381)              4.36022837E-06
    1382    (1,1382)              6.93413498E-06
    1383    (1,1383)              3.57529275E-06
    1384    (1,1384)              1.68534591E-05
    1385    (1,1385)              7.54653785E-05
    1386    (1,1386)              1.01133968E-04
    1387    (1,1387)              1.40562972E-05
    1388    (1,1388)              4.05945590E-06
    1389    (1,1389)              1.35926994E-05
    1390    (1,1390)              1.03218230E-07
    1391    (1,1391)              1.00236351E-07
    1392    (1,1392)              1.68532237E-05
    1393    (1,1393)              4.13082844E-05
    1394    (1,1394)              1.28446741E-04
    1395    (1,1395)              3.45536685E-04
    1396    (1,1396)              4.14589021E-04
    1397    (1,1397)              1.12662919E-05
    1398    (1,1398)              9.00932977E-06
    1399    (1,1399)              1.33950458E-04
    1400    (1,1400)              2.80558456E-05
    1401    (1,1401)              1.04098035E-05
    1402    (1,1402)              5.50368669E-05
    1403    (1,1403)              3.71424323E-05
    1404    (1,1404)              1.29341243E-05
    1405    (1,1405)              2.73188119E-05
    1406    (1,1406)              3.14330449E-05
    1407    (1,1407)              5.42295501E-05
    1408    (1,1408)              1.68764527E-04
    1409    (1,1409)              7.91263525E-05
    1410    (1,1410)              2.87092770E-05
    1411    (1,1411)              1.54188722E-05
    1412    (1,1412)              6.17751376E-06
    1413    (1,1413)              2.15872775E-05
    1414    (1,1414)              2.55246843E-05
    1415    (1,1415)              2.34488961E-05
    1416    (1,1416)              1.99026844E-05
    1417    (1,1417)              1.39651699E-05
    1418    (1,1418)              7.92668759E-05
    1419    (1,1419)              1.41473651E-04
    1420    (1,1420)              1.11765929E-04
    1421    (1,1421)              8.50568551E-05
    1422    (1,1422)              2.23924498E-06
    1423    (1,1423)              1.03508992E-06
    1424    (1,1424)              4.60479836E-05
    1425    (1,1425)              1.04614036E-04
    1426    (1,1426)              2.91338812E-04
    1427    (1,1427)              3.17754692E-05
    1428    (1,1428)              9.86726878E-06
    1429    (1,1429)              1.98592593E-05
    1430    (1,1430)              4.16324720E-05
    1431    (1,1431)              3.36662379E-05
    1432    (1,1432)              3.60279352E-05
    1433    (1,1433)              7.17487084E-06
    1434    (1,1434)              6.78126108E-06
    1435    (1,1435)              8.05561104E-05
    1436    (1,1436)              1.25454640E-04
    1437    (1,1437)              1.78824509E-06
    1438    (1,1438)              2.06347933E-06
    1439    (1,1439)              5.66075243E-05
    1440    (1,1440)              2.26922838E-04
    1441    (1,1441)              6.17044228E-05
    1442    (1,1442)              1.93081422E-08
    1443    (1,1443)              2.18440775E-08
    1444    (1,1444)              3.57239855E-06
    1445    (1,1445)              1.50217616E-05
    1446    (1,1446)              2.65677183E-05
    1447    (1,1447)              6.76057202E-05
    1448    (1,1448)              1.11727045E-04
    1449    (1,1449)              7.28836131E-06
    1450    (1,1450)              2.89616671E-06
    1451    (1,1451)              3.95852724E-06
    1452    (1,1452)              2.08986945E-06
    1453    (1,1453)              5.22880317E-06
    1454    (1,1454)              8.39583477E-06
    1455    (1,1455)              4.79749688E-06
[...]
   28715    (1,28715)             0.36216897    
   28716    (1,28716)             0.17356494    
   28717    (1,28717)             0.38583938    
   28718    (1,28718)             0.22184057    
   28719    (1,28719)             0.49808413    
   28720    (1,28720)             0.32504907    
   28721    (1,28721)             0.30019998    
   28722    (1,28722)             0.33934962    
   28723    (1,28723)             0.36750936    
   28724    (1,28724)             0.51534196    
   28725    (1,28725)             0.45621913    
   28726    (1,28726)             0.30881505    
   28727    (1,28727)             0.25901628    
   28728    (1,28728)             0.39141817    
   28729    (1,28729)             0.41171144    
   28730    (1,28730)             0.47377077    
   28731    (1,28731)             0.30517137    
   28732    (1,28732)             0.41904647    
   28733    (1,28733)             0.40168272    
   28734    (1,28734)             0.40124582    
   28735    (1,28735)             0.34913537    
   28736    (1,28736)             0.36624117    
   28737    (1,28737)             0.44755788    
   28738    (1,28738)             0.51904450    
   28739    (1,28739)             0.31503933    
   28740    (1,28740)             0.48693568    
   28741    (1,28741)             0.48035221    
   28742    (1,28742)             0.47656558    
   28743    (1,28743)             0.50978020    
   28744    (1,28744)             0.33530333    
   28745    (1,28745)             0.40206804    
   28746    (1,28746)             0.31047206    
   28747    (1,28747)             0.42566818    
   28748    (1,28748)             0.33261980    
   28749    (1,28749)             0.39077284    
   28750    (1,28750)             0.26908619    
   28751    (1,28751)             0.34640118    
   28752    (1,28752)             0.26829637    
   28753    (1,28753)             0.30668665    
   28754    (1,28754)             0.29765617    
   28755    (1,28755)             0.44224775    
   28756    (1,28756)             0.47489888    
   28757    (1,28757)             0.30462244    
   28758    (1,28758)             0.42326953    
   28759    (1,28759)             0.38352378    
   28760    (1,28760)             0.30166660    
   28761    (1,28761)             0.40235987    
   28762    (1,28762)             0.42055091    
   28763    (1,28763)             0.36222418    
   28764    (1,28764)             0.49114505    
   28765    (1,28765)             0.37913541    
   28766    (1,28766)             0.43938826    
   28767    (1,28767)             0.55133916    
   28768    (1,28768)             0.29813670    
   28769    (1,28769)             0.42929016    
   28770    (1,28770)             0.45758730    
   28771    (1,28771)             0.36584581    
   28772    (1,28772)             0.40091095    
   28773    (1,28773)             0.42172372    
   28774    (1,28774)             0.42885736    
   28775    (1,28775)             0.43474115    
   28776    (1,28776)             0.46111612    
   28777    (1,28777)             0.39023451    
   28778    (1,28778)             0.29941127    
   28779    (1,28779)             0.33255821    
   28780    (1,28780)             0.39867497    
   28781    (1,28781)             0.35786082    
   28782    (1,28782)             0.38291120    
   28783    (1,28783)             0.35152040    
   28784    (1,28784)             0.38314683    
   28785    (1,28785)             0.40512477    
   28786    (1,28786)             0.32474809    
   28787    (1,28787)             0.50984822    
   28788    (1,28788)             0.46185463    
   28789    (1,28789)             0.43158388    
   28790    (1,28790)             0.44452063    
   28791    (1,28791)             0.38380206    
   28792    (1,28792)             0.51482590    
   28793    (1,28793)             0.39851070    
   28794    (1,28794)             0.46611117    
   28795    (1,28795)             0.44991195    
   28796    (1,28796)             0.40779868    
   28797    (1,28797)             0.39219096    
   28798    (1,28798)             0.40773800    
   28799    (1,28799)             0.40796210    
   28800    (1,28800)             0.35993968    
   28801    (1,28801)             0.45840251    
   28802    (1,28802)             0.33669143    
   28803    (1,28803)             0.35071068    
   28804    (1,28804)             0.41946338    
   28805    (1,28805)             0.35868934    
   28806    (1,28806)             0.47821276    
   28807    (1,28807)             0.41587817    
   28808    (1,28808)             0.39346395    
   28809    (1,28809)             0.44643429    
   28810    (1,28810)             0.41734686    
   28811    (1,28811)             0.39573720    
   28812    (1,28812)             0.44997621    
   28813    (1,28813)             0.39854056    
   28814    (1,28814)             0.39591928    
   28815    (1,28815)             0.39299452    
   28816    (1,28816)             0.55638599    
   28817    (1,28817)             0.48720336    
   28818    (1,28818)             0.41017302    
   28819    (1,28819)             0.41754788    
   28820    (1,28820)             0.40297456    
   28821    (1,28821)             0.48245454    
   28822    (1,28822)             0.46563177    
   28823    (1,28823)             0.43240741    
   28824    (1,28824)             0.47977898    
   28825    (1,28825)             0.41817673    
   28826    (1,28826)             0.35708688    
   28827    (1,28827)             0.57080075    
   28828    (1,28828)             0.33233377    
   28829    (1,28829)             0.42454348    
   28830    (1,28830)             0.38625163    
   28831    (1,28831)             0.41070977    
   28832    (1,28832)             0.41563130    
   28833    (1,28833)             0.39481312    
   28834    (1,28834)             0.45425232    
   28835    (1,28835)             0.48126898    
   28836    (1,28836)             0.36836303    
   28837    (1,28837)             0.46820545    
   28838    (1,28838)             0.38761575    
   28839    (1,28839)             0.38483330    
   28840    (1,28840)             0.36067354    
   28841    (1,28841)             0.29901205    
   28842    (1,28842)             0.32021006    
   28843    (1,28843)             0.40196055    
   28844    (1,28844)             0.36301789    
   28845    (1,28845)             0.41882820    
   28846    (1,28846)             0.34160559    
   28847    (1,28847)             0.32255733    
   28848    (1,28848)             0.36993250    
   28849    (1,28849)             0.31480929    
   28850    (1,28850)             0.29623259    
   28851    (1,28851)             0.28720727    
   28852    (1,28852)             0.39700788    
   28853    (1,28853)             0.42955555    
   28854    (1,28854)             0.27041404    
   28855    (1,28855)             0.36429096    
   28856    (1,28856)             0.45869662    
   28857    (1,28857)             0.36638228    
   28858    (1,28858)             0.38090140    
   28859    (1,28859)             0.43678354    
   28860    (1,28860)             0.44855646    
   28861    (1,28861)             0.49971639    
   28862    (1,28862)             0.46461352    
   28863    (1,28863)             0.33505059    
   28864    (1,28864)             0.38517898    
   28865    (1,28865)             0.43417863    
   28866    (1,28866)             0.53434784    
   28867    (1,28867)             0.50656427    
   28868    (1,28868)             0.34587281    
   28869    (1,28869)             0.38530289    
   28870    (1,28870)             0.20358391    
   28871    (1,28871)             0.40148773    
   28872    (1,28872)             0.48376872    
   28873    (1,28873)             0.34249189    
   28874    (1,28874)             0.38467697    
   28875    (1,28875)             0.21840724    
   28876    (1,28876)             0.23568760    
   28877    (1,28877)             0.44199934    
   28878    (1,28878)             0.27415087    
   28879    (1,28879)             0.28321875    
   28880    (1,28880)             0.41389267    
   28881    (1,28881)             0.30451113    
   28882    (1,28882)             0.45414550    
   28883    (1,28883)             0.31000045    
   28884    (1,28884)             0.32536194    
   28885    (1,28885)             0.49340472    
   28886    (1,28886)             0.37249169    
   28887    (1,28887)             0.33177904    
   28888    (1,28888)             0.36458458    
   28889    (1,28889)             0.52924222    
   28890    (1,28890)             0.54177471    
   28891    (1,28891)             0.41665645    
   28892    (1,28892)             0.33580557    
   28893    (1,28893)             0.40659738    
   28894    (1,28894)             0.34660191    
   28895    (1,28895)             0.50041470    
   28896    (1,28896)             0.46618153    
   28897    (1,28897)             0.41357061    
   28898    (1,28898)             0.42405879    
   28899    (1,28899)             0.50486285    
   28900    (1,28900)             0.31724861    
   28901    (1,28901)             0.37374926    
   28902    (1,28902)             0.33076789    
   28903    (1,28903)             0.39810638    
   28904    (1,28904)             0.39458278    
   28905    (1,28905)             0.38301295    
   28906    (1,28906)             0.34193343    
   28907    (1,28907)             0.48647726    
   28908    (1,28908)             0.36386176    
   28909    (1,28909)             0.44625346    
   28910    (1,28910)             0.54988435    
   28911    (1,28911)             0.46367298    
   28912    (1,28912)             0.36286000    
   28913    (1,28913)             0.45893474    
   28914    (1,28914)             0.42844131    
   28915    (1,28915)             0.35510226    
   28916    (1,28916)             0.38157814    
   28917    (1,28917)             0.43292245    
   28918    (1,28918)             0.37261170    
   28919    (1,28919)             0.45482179    
   28920    (1,28920)             0.48276010    
   28921    (1,28921)             0.39515309    
   28922    (1,28922)             0.44535694    
   28923    (1,28923)             0.38571984    
   28924    (1,28924)             0.36934916    
   28925    (1,28925)             0.43727372    
   28926    (1,28926)             0.46869306    
   28927    (1,28927)             0.46094833    
   28928    (1,28928)             0.46497436    
   28929    (1,28929)             0.32267052    
   28930    (1,28930)             0.46636588    
   28931    (1,28931)             0.42369137    
   28932    (1,28932)             0.45205663    
   28933    (1,28933)             0.40482313    
   28934    (1,28934)             0.42430079    
   28935    (1,28935)             0.47679516    
   28936    (1,28936)             0.38240591    
   28937    (1,28937)             0.44784818    
   28938    (1,28938)             0.33354130    
   28939    (1,28939)             0.38397347    
   28940    (1,28940)             0.33604176    
   28941    (1,28941)             0.34726726    
   28942    (1,28942)             0.37382160    
   28943    (1,28943)             0.36370377    
   28944    (1,28944)             0.35007234    
   28945    (1,28945)             0.33211596    
   28946    (1,28946)             0.48118723    
   28947    (1,28947)             0.45131870    
   28948    (1,28948)             0.46534888    
   28949    (1,28949)             0.44000974    
   28950    (1,28950)             0.42424776    
   28951    (1,28951)             0.34077567    
   28952    (1,28952)             0.38515415    
   28953    (1,28953)             0.32145767    
   28954    (1,28954)             0.50991305    
   28955    (1,28955)             0.34701598    
   28956    (1,28956)             0.33558451    
   28957    (1,28957)             0.33219615    
   28958    (1,28958)             0.32199696    
   28959    (1,28959)             0.36365400    
   28960    (1,28960)             0.32895447    
   28961    (1,28961)             0.34869748    
   28962    (1,28962)             0.34412411    
   28963    (1,28963)             0.39448289    
   28964    (1,28964)             0.41379677    
   28965    (1,28965)             0.37978372    
   28966    (1,28966)             0.33809743    
   28967    (1,28967)             0.46757087    
   28968    (1,28968)             0.53850779    
   28969    (1,28969)             0.39922746    
   28970    (1,28970)             0.42375531    
   28971    (1,28971)             0.39772059    
   28972    (1,28972)             0.32180442    
   28973    (1,28973)             0.40553493    
   28974    (1,28974)             0.46284733    
   28975    (1,28975)             0.40913195    
   28976    (1,28976)             0.38160887    
   28977    (1,28977)             0.46740244    
   28978    (1,28978)             0.35328822    
   28979    (1,28979)             0.41869446    
   28980    (1,28980)             0.40865588    
   28981    (1,28981)             0.40796719    
   28982    (1,28982)             0.44535719    
   28983    (1,28983)             0.30757427    
   28984    (1,28984)             0.35428247    
   28985    (1,28985)             0.44440117    
   28986    (1,28986)             0.46627916    
   28987    (1,28987)             0.48871492    
   28988    (1,28988)             0.37837151    
   28989    (1,28989)             0.41248677    
   28990    (1,28990)             0.34709016    
   28991    (1,28991)             0.47098646    
   28992    (1,28992)             0.50875995    
   28993    (1,28993)             0.45086665    
   28994    (1,28994)             0.41073076    
   28995    (1,28995)             0.43729364    
   28996    (1,28996)             0.33014684    
   28997    (1,28997)             0.33300504    
   28998    (1,28998)             0.37221244    
   28999    (1,28999)             0.35327082    
   29000    (1,29000)             0.51211561    
   29001    (1,29001)             0.45644452    
   29002    (1,29002)             0.50099036    
   29003    (1,29003)             0.47363214    
   29004    (1,29004)             0.52816325    
   29005    (1,29005)             0.34321620    
   29006    (1,29006)             0.36727102    
   29007    (1,29007)             0.47813971    
   29008    (1,29008)             0.41279917    
   29009    (1,29009)             0.33508643    
   29010    (1,29010)             0.29901745    
   29011    (1,29011)             0.42459478    
   29012    (1,29012)             0.46018314    
   29013    (1,29013)             0.45873098    
   29014    (1,29014)             0.49861797    
   29015    (1,29015)             0.38696695    
   29016    (1,29016)             0.38990793    
   29017    (1,29017)             0.37440337    
   29018    (1,29018)             0.35632094    
   29019    (1,29019)             0.45823682    
   29020    (1,29020)             0.47502742    
   29021    (1,29021)             0.42386494    
   29022    (1,29022)             0.25746110    
   29023    (1,29023)             0.45548086    
   29024    (1,29024)             0.41480891    
   29025    (1,29025)             0.23039682    
   29026    (1,29026)             0.51536666    
   29027    (1,29027)             0.45611476    
   29028    (1,29028)             0.35320981    
   29029    (1,29029)             0.35081643    
   29030    (1,29030)             0.42306971    
   29031    (1,29031)             0.41839420    
   29032    (1,29032)             0.20546174    
   29033    (1,29033)             0.38518539    
   29034    (1,29034)             0.30361006    
   29035    (1,29035)             0.44330885    
   29036    (1,29036)             0.20546731    
   29037    (1,29037)             0.44432087    
   29038    (1,29038)             0.46127204    
   29039    (1,29039)             0.17840715    
   29040    (1,29040)             0.42744587    
   29041    (1,29041)             0.43830622    
   29042    (1,29042)             0.44078304    
   29043    (1,29043)             0.39126018    
   29044    (1,29044)             0.43208955    
   29045    (1,29045)             0.38939302    
   29046    (1,29046)             0.38316111    
   29047    (1,29047)             0.32487536    
   29048    (1,29048)             0.39865282    
   29049    (1,29049)             0.56812307    
   29050    (1,29050)             0.33490761    
   29051    (1,29051)             0.58015490    
   29052    (1,29052)             0.45059477    
   29053    (1,29053)             0.44711756    
   29054    (1,29054)             0.46350483    
   29055    (1,29055)             0.44336585    
   29056    (1,29056)             0.44515038    
   29057    (1,29057)             0.34887659    
   29058    (1,29058)             0.32342126    
   29059    (1,29059)             0.42883916    
   29060    (1,29060)             0.41618982    
   29061    (1,29061)             0.44772890    
   29062    (1,29062)             0.59445124    
   29063    (1,29063)             0.49064369    
   29064    (1,29064)             0.50197673    
   29065    (1,29065)             0.39603679    
   29066    (1,29066)             0.41759496    
   29067    (1,29067)             0.37317567    
   29068    (1,29068)             0.45176303    
   29069    (1,29069)             0.18652560    
   29070    (1,29070)             0.33531302    
   29071    (1,29071)             0.37070681    
 -----------------------------------------------




 HEAD WILL BE SAVED ON UNIT 1018 AT END OF TIME STEP    1, STRESS PERIOD    1


  VOLUME BUDGET FOR ENTIRE MODEL AT END OF TIME STEP    1, STRESS PERIOD   1
  ---------------------------------------------------------------------------------------------------

     CUMULATIVE VOLUME      L**3       RATES FOR THIS TIME STEP      L**3/T          PACKAGE NAME    
     ------------------                 ------------------------                     ----------------

           IN:                                      IN:
           ---                                      ---
                 WEL =           0.0000                   WEL =           0.0000     WELL_PACKAGE                     
                 RCH =         562.0929                   RCH =         562.0929     RCH                              
                 EVT =           0.0000                   EVT =           0.0000     EVT                              
                 CHD =       9.4559E-04                   CHD =       9.4559E-04     CHD                              

            TOTAL IN =         562.0938              TOTAL IN =         562.0938

          OUT:                                     OUT:
          ----                                     ----
                 WEL =          63.1392                   WEL =          63.1392     WELL_PACKAGE                     
                 RCH =           0.0000                   RCH =           0.0000     RCH                              
                 EVT =           8.3678                   EVT =           8.3678     EVT                              
                 CHD =         490.5872                   CHD =         490.5872     CHD                              

           TOTAL OUT =         562.0941             TOTAL OUT =         562.0941

            IN - OUT =      -2.8066E-04              IN - OUT =      -2.8066E-04

 PERCENT DISCREPANCY =          -0.00     PERCENT DISCREPANCY =          -0.00




         TIME SUMMARY AT END OF TIME STEP    1 IN STRESS PERIOD    1
                    SECONDS     MINUTES      HOURS       DAYS        YEARS
                    -----------------------------------------------------------
   TIME STEP LENGTH  1.0000     1.66667E-02 2.77778E-04 1.15741E-05 3.16881E-08
 STRESS PERIOD TIME  1.0000     1.66667E-02 2.77778E-04 1.15741E-05 3.16881E-08
         TOTAL TIME  1.0000     1.66667E-02 2.77778E-04 1.15741E-05 3.16881E-08


end timestep

