                                   MODFLOW 6
                U.S. GEOLOGICAL SURVEY MODULAR HYDROLOGIC MODEL
                            VERSION 6.6.0 12/20/2024

   MODFLOW 6 compiled Dec 31 2024 17:10:16 with Intel(R) Fortran Intel(R) 64
   Compiler Classic for applications running on Intel(R) 64, Version 2021.7.0
                             Build 20220726_000000

This software has been approved for release by the U.S. Geological 
Survey (USGS). Although the software has been subjected to rigorous 
review, the USGS reserves the right to update the software as needed 
pursuant to further analysis and review. No warranty, expressed or 
implied, is made by the USGS or the U.S. Government as to the 
functionality of the software and related material nor shall the 
fact of release constitute any such warranty. Furthermore, the 
software is released on condition that neither the USGS nor the U.S. 
Government shall be held liable for any damages resulting from its 
authorized or unauthorized use. Also refer to the USGS Water 
Resources Software User Rights Notice for complete use, copyright, 
and distribution information.


As a work of the United States Government, this USGS product is 
in the public domain within the United States. You can copy, 
modify, distribute, and perform the work, even for commercial 
purposes, all without asking permission. Additionally, USGS 
waives copyright and related rights in the work worldwide 
through CC0 1.0 Universal Public Domain Dedication 
(https://creativecommons.org/publicdomain/zero/1.0/).

The following GNU Lesser General Public License (LGPL) libraries
are used in this USGS product:

    SPARSKIT version 2.0
      ilut, luson, and qsplit 
      (https://www-users.cse.umn.edu/~saad/software/SPARSKIT/)

    RCM - Reverse Cuthill McKee Ordering
      (https://people.math.sc.edu/Burkardt/f_src/rcm/rcm.html)

    BLAS - Basic Linear Algebra Subprograms Level 1
      (https://people.math.sc.edu/Burkardt/f_src/blas1_d/blas1_d.html)

    SPARSEKIT - Sparse Matrix Utility Package
      amux, dperm, dvperm, rperm, and cperm
      (https://people.sc.fsu.edu/~jburkardt/f77_src/sparsekit/sparsekit.html)

The following BSD-3 License libraries are used in this USGS product:

    Modern Fortran DAG Library
      Copyright (c) 2018, Jacob Williams
      All rights reserved.
      (https://github.com/jacobwilliams/daglib)

MODFLOW 6 compiler options: /O2 /heap-arrays:0 /fpe:0 /traceback /nologo /fpp
/c /module:win64\mod_mf6\ /object:win64\obj_mf6\

System command used to initiate simulation:
C:\Users\sebas\AppData\Local\flopy\bin\mf6.exe

MODFLOW was compiled using uniform precision.

Real Variables
  KIND: 8
  TINY (smallest non-zero value):    2.225074-308
  HUGE (largest value):    1.797693+308
  PRECISION: 15
  SIZE IN BITS: 64

Integer Variables
  KIND: 4
  HUGE (largest value): 2147483647
  SIZE IN BITS: 32

Long Integer Variables
  KIND: 8
  HUGE (largest value): 9223372036854775807
  SIZE IN BITS: 64

Logical Variables
  KIND: 4
  SIZE IN BITS: 32
 

 OPENED mfsim.nam
 FILE TYPE:NAM6               UNIT 1001   STATUS:OLD                 
 FORMAT:FORMATTED              ACCESS:SEQUENTIAL          
 ACTION:READ                

 # File generated by Flopy version 3.9.1 on 01/11/2026 at 23:32:19.

 OPENED DISU_model.tdis
 FILE TYPE:TDIS6              UNIT 1002   STATUS:OLD                 
 FORMAT:FORMATTED              ACCESS:SEQUENTIAL          
 ACTION:READ                

 # File generated by Flopy version 3.9.1 on 01/11/2026 at 23:32:19.

 OPENED DISU_model.nam
 FILE TYPE:GWF6               UNIT 1003   STATUS:OLD                 
 FORMAT:FORMATTED              ACCESS:SEQUENTIAL          
 ACTION:READ                

 # File generated by Flopy version 3.9.1 on 01/11/2026 at 23:32:19.

 OPENED DISU_model.disu
 FILE TYPE:DISU6              UNIT 1004   STATUS:OLD                 
 FORMAT:FORMATTED              ACCESS:SEQUENTIAL          
 ACTION:READ                

 # File generated by Flopy version 3.9.1 on 01/11/2026 at 23:32:20.

 OPENED DISU_model.npf
 FILE TYPE:NPF6               UNIT 1005   STATUS:OLD                 
 FORMAT:FORMATTED              ACCESS:SEQUENTIAL          
 ACTION:READ                

 # File generated by Flopy version 3.9.1 on 01/11/2026 at 23:32:38.

 OPENED DISU_model.ic
 FILE TYPE:IC6                UNIT 1006   STATUS:OLD                 
 FORMAT:FORMATTED              ACCESS:SEQUENTIAL          
 ACTION:READ                

 # File generated by Flopy version 3.9.1 on 01/11/2026 at 23:32:38.

 OPENED DISU_model.oc
 FILE TYPE:OC6       UNIT 1007   STATUS:OLD                 
 FORMAT:FORMATTED              ACCESS:SEQUENTIAL          
 ACTION:READ                


 OPENED DISU_model.wel
 FILE TYPE:WEL6               UNIT 1008   STATUS:OLD                 
 FORMAT:FORMATTED              ACCESS:SEQUENTIAL          
 ACTION:READ                

 # File generated by Flopy version 3.9.1 on 01/11/2026 at 23:32:39.

 OPENED quadtree_caseD_1.rch
 FILE TYPE:RCH6               UNIT 1010   STATUS:OLD                 
 FORMAT:FORMATTED              ACCESS:SEQUENTIAL          
 ACTION:READ                

 # File generated by Flopy version 3.9.1 on 01/11/2026 at 23:32:39.

 OPENED DISU_model.evt
 FILE TYPE:EVT6               UNIT 1012   STATUS:OLD                 
 FORMAT:FORMATTED              ACCESS:SEQUENTIAL          
 ACTION:READ                

 # File generated by Flopy version 3.9.1 on 01/11/2026 at 23:32:39.

 OPENED DISU_model.chd
 FILE TYPE:CHD6               UNIT 1013   STATUS:OLD                 
 FORMAT:FORMATTED              ACCESS:SEQUENTIAL          
 ACTION:READ                

 # File generated by Flopy version 3.9.1 on 01/11/2026 at 23:32:38.

 READING SIMULATION OPTIONS
    MAXIMUM NUMBER OF ERRORS THAT WILL BE STORED IS 1000
 END OF SIMULATION OPTIONS

 READING SIMULATION TIMING

 TDIS -- TEMPORAL DISCRETIZATION PACKAGE,
 VERSION 1 : 11/13/2014 - INPUT READ FROM MEMPATH: __INPUT__/SIM/TDIS                                
 PROCESSING TDIS OPTIONS
    SIMULATION TIME UNIT IS SECONDS
 END OF TDIS OPTIONS
 PROCESSING TDIS DIMENSIONS
    1 STRESS PERIOD(S) IN SIMULATION
 END OF TDIS DIMENSIONS
 PROCESSING TDIS PERIODDATA


 STRESS PERIOD     LENGTH       TIME STEPS     MULTIPLIER FOR DELT
 ----------------------------------------------------------------------------
        1         1.000000          1                    1.000
 END OF TDIS PERIODDATA
 END OF SIMULATION TIMING

 READING SIMULATION MODELS
    GWF6 model 1 will be created
 END OF SIMULATION MODELS

 READING SIMULATION EXCHANGES
 END OF SIMULATION EXCHANGES

 READING SOLUTIONGROUP

 Creating solution: SLN_1           

 OPENED DISU_model.ims
 FILE TYPE:IMS   UNIT 1015   STATUS:OLD                 
 FORMAT:FORMATTED              ACCESS:SEQUENTIAL          
 ACTION:READ                

 END OF SOLUTIONGROUP

PROCESSING MODEL CONNECTIONS

 IMS -- ITERATIVE MODEL SOLUTION PACKAGE, VERSION 6, 4/28/2017
         INPUT READ FROM UNIT 1015
 # File generated by Flopy version 3.9.1 on 01/11/2026 at 23:32:19.

 PROCESSING IMS OPTIONS
 COMPLEX OPTION:
 DEFAULT SOLVER INPUT VALUES REFLECT STRONGLY NONLINEAR MODEL
 END OF IMS OPTIONS

 PROCESSING IMS NONLINEAR
 END OF IMS NONLINEAR DATA
 **UNDER-RELAXATION WILL BE USED***
 

 PROCESSING LINEAR DATA
 END OF LINEAR DATA
 ***IMS LINEAR SOLVER WILL BE USED***

 IMSLINEAR -- UNSTRUCTURED LINEAR SOLUTION PACKAGE, VERSION 8, 04/28/2017
 An asymmetric matrix will be solved

 OUTER ITERATION CONVERGENCE CRITERION    (DVCLOSE) =    0.100000E-02
 MAXIMUM NUMBER OF OUTER ITERATIONS        (MXITER) = 300
 SOLVER PRINTOUT INDEX                     (IPRIMS) = 1
 NONLINEAR ITERATION METHOD            (NONLINMETH) = 3
 LINEAR SOLUTION METHOD                   (LINMETH) = 1
 UNDER-RELAXATION WEIGHT REDUCTION FACTOR   (THETA) =    0.800000E+00
 UNDER-RELAXATION WEIGHT INCREASE INCREMENT (KAPPA) =    0.100000E-03
 UNDER-RELAXATION PREVIOUS HISTORY FACTOR   (GAMMA) =    0.000000E+00
 UNDER-RELAXATION MOMENTUM TERM         (AMOMENTUM) =    0.000000E+00
 MAXIMUM NUMBER OF BACKTRACKS            (NUMTRACK) = 20
 BACKTRACKING TOLERANCE FACTOR               (BTOL) =    0.105000E+01
 BACKTRACKING REDUCTION FACTOR             (BREDUC) =    0.100000E+00
 BACKTRACKING RESIDUAL LIMIT              (RES_LIM) =    0.200000E-02

       SOLUTION BY THE BICONJUGATE-GRADIENT STABILIZED METHOD
 ------------------------------------------------------------------
 MAXIMUM OF 300 CALLS OF SOLUTION ROUTINE
 MAXIMUM OF 1200 INTERNAL ITERATIONS PER CALL TO SOLUTION ROUTINE
 LINEAR ACCELERATION METHOD            = BCGS      
 MATRIX PRECONDITIONING TYPE           = MOD. INCOMPLETE LUT 
 MATRIX SCALING APPROACH               = NO SCALING          
 MATRIX REORDERING APPROACH            = ORIGINAL ORDERING        
 NUMBER OF ORTHOGONALIZATIONS          = 2
 HEAD CHANGE CRITERION FOR CLOSURE     =    0.10000E-05
 RESIDUAL CHANGE CRITERION FOR CLOSURE =    0.10000E+00
 RESIDUAL CONVERGENCE OPTION           = 0
 RESIDUAL CONVERGENCE NORM             = INFINITY NORM   
 RELAXATION FACTOR                     =    0.92000E+00
 NUMBER OF LEVELS                      =              5
 DROP TOLERANCE                        =    0.10000E-03


 
    Solving:  Stress period:     1    Time step:     1
 
1
 STRESS PERIOD NO. 1, LENGTH =   1.000000    
 ------------------------------------------
 NUMBER OF TIME STEPS = 1
 MULTIPLIER FOR DELT =     1.000
 INITIAL TIME STEP SIZE =   1.000000    

 SLN_1 OUTER ITERATION SUMMARY
 ----------------------------------------------------------------------------------------------------------------------------------------------------------------
                                OUTER      INNER  BACKTRACK  BACKTRACK        INCOMING        OUTGOING                    STEP   MAXIMUM CHANGE MODEL-(CELLID) OR
 OUTER ITERATION STEP       ITERATION  ITERATION       FLAG ITERATIONS        RESIDUAL        RESIDUAL  MAXIMUM CHANGE SUCCESS             MODEL-PACKAGE-(NUMBER)
 ----------------------------------------------------------------------------------------------------------------------------------------------------------------
 Backtracking                       1                     0          0       6576805.1       6576805.1                       *                                   
 Model                              1        147                                                             253.21005                              1_GWF-(69701)
 Backtracking                       2                     0          0       3.6593569       3.6593569                       *                                   
 Model                              2        100                                                           -0.37816112                              1_GWF-(84301)
 Backtracking                       3                     4          2       197.85296       4.1330382                                                           
 Model                              3        105                                                           -0.37510347                              1_GWF-(84301)
 Backtracking                       4                     4          2       196.22383       5.3218152                                                           
 Model                              4         84                                                           -0.37163549                              1_GWF-(84301)
 Backtracking                       5                     4          2       194.26131       6.8304371                                                           
 Model                              5         99                                                           -0.36912308                              1_GWF-(84301)
 Backtracking                       6                     4          2       192.90141       8.4696017                                                           
 Model                              6         89                                                           -0.36565659                              1_GWF-(84301)
 Backtracking                       7                     4          2       190.95757       10.153232                                                           
 Model                              7         95                                                           -0.36321814                              1_GWF-(84301)
 Backtracking                       8                     4          2       189.65720       11.851231                                                           
 Model                              8         93                                                           -0.36030648                              1_GWF-(84301)
 Backtracking                       9                     4          2       188.02938       13.542843                                                           
 Model                              9         88                                                           -0.35739924                              1_GWF-(84301)
 Backtracking                      10                     4          2       186.42242       15.218792                                                           
 Model                             10         93                                                           -0.35452799                              1_GWF-(84301)
 Backtracking                      11                     4          2       184.82854       16.873806                                                           
 Model                             11         77                                                           -0.35087978                              1_GWF-(84301)
 Backtracking                      12                     4          2       182.57295       18.498151                                                           
 Model                             12         90                                                           -0.34885729                              1_GWF-(84301)
 Backtracking                      13                     4          2       181.69577       20.103440                                                           
 Model                             13         93                                                           -0.34608295                              1_GWF-(84301)
 Backtracking                      14                     4          2       180.14253       21.681734                                                           
 Model                             14         88                                                           -0.34329494                              1_GWF-(84301)
 Backtracking                      15                     4          2       178.60953       23.232448                                                           
 Model                             15        113                                                           -0.34063961                              1_GWF-(84301)
 Backtracking                      16                     4          2       177.11928       24.755526                                                           
 Model                             16         91                                                           -0.33780167                              1_GWF-(84301)
 Backtracking                      17                     4          2       175.57948       26.250196                                                           
 Model                             17         89                                                           -0.33505683                              1_GWF-(84301)
 Backtracking                      18                     4          2       174.08952       27.716818                                                           
 Model                             18         85                                                           -0.33233990                              1_GWF-(84301)
 Backtracking                      19                     4          2       172.58401       29.155195                                                           
 Model                             19         84                                                           -0.32981637                              1_GWF-(84301)
 Backtracking                      20                     1          2       171.23300       30.566899                                                           
 Model                             20         77                                                           -0.32765921                              1_GWF-(84301)
 Backtracking                      21                     1          2       170.22953       31.955459                                                           
 Model                             21         89                                                           -0.32444734                              1_GWF-(84301)
 Backtracking                      22                     1          2       168.22567       33.310996                                                           
 Model                             22         91                                                           -0.32187426                              1_GWF-(84301)
 Backtracking                      23                     1          2       166.78117       34.639276                                                           
 Model                             23         87                                                           -0.31926506                              1_GWF-(84301)
 Backtracking                      24                     1          2       165.37353       35.940836                                                           
 Model                             24        101                                                           -0.31670053                              1_GWF-(84301)
 Backtracking                      25                     1          2       163.94472       37.215645                                                           
 Model                             25         81                                                           -0.31434733                              1_GWF-(84301)
 Backtracking                      26                     1          2       163.22433       38.470957                                                           
 Model                             26        101                                                           -0.31182662                              1_GWF-(84301)
 Backtracking                      27                     1          2       161.21790       39.694100                                                           
 Model                             27         86                                                           -0.30918586                              1_GWF-(84301)
 Backtracking                      28                     1          2       159.83362       40.891542                                                           
 Model                             28         91                                                           -0.30666431                              1_GWF-(84301)
 Backtracking                      29                     1          2       158.41906       42.063193                                                           
 Model                             29         94                                                           -0.30419081                              1_GWF-(84301)
 Backtracking                      30                     1          2       157.07108       43.209939                                                           
 Model                             30         91                                                           -0.30177089                              1_GWF-(84301)
 Backtracking                      31                     1          2       155.72830       44.332050                                                           
 Model                             31         89                                                           -0.29912603                              1_GWF-(84301)
 Backtracking                      32                     1          2       154.42025       45.430092                                                           
 Model                             32         92                                                           -0.29694624                              1_GWF-(84301)
 Backtracking                      33                     1          2       153.08169       46.503978                                                           
 Model                             33        105                                                           -0.29463166                              1_GWF-(84301)
 Backtracking                      34                     1          2       151.80696       47.554566                                                           
 Model                             34        106                                                           -0.29228108                              1_GWF-(84301)
 Backtracking                      35                     1          2       150.51309       48.581880                                                           
 Model                             35         92                                                           -0.28983735                              1_GWF-(84301)
 Backtracking                      36                     1          2       149.19338       49.585879                                                           
 Model                             36         90                                                           -0.28749305                              1_GWF-(84301)
 Backtracking                      37                     1          2       147.92165       50.567261                                                           
 Model                             37         89                                                           -0.28518694                              1_GWF-(84301)
 Backtracking                      38                     1          2       146.65663       51.526307                                                           
 Model                             38         83                                                           -0.28304068                              1_GWF-(84301)
 Backtracking                      39                     1          2       145.67987       52.466108                                                           
 Model                             39         88                                                           -0.28060609                              1_GWF-(84301)
 Backtracking                      40                     1          2       144.18765       53.381701                                                           
 Model                             40         92                                                           -0.27839322                              1_GWF-(84301)
 Backtracking                      41                     1          2       142.92655       54.275625                                                           
 Model                             41         91                                                           -0.27609582                              1_GWF-(84301)
 Backtracking                      42                     1          2       141.70962       55.148532                                                           
 Model                             42         90                                                           -0.27387949                              1_GWF-(84301)
 Backtracking                      43                     1          2       140.49601       56.000656                                                           
 Model                             43         91                                                           -0.27171269                              1_GWF-(84301)
 Backtracking                      44                     1          2       139.29305       56.832307                                                           
 Model                             44         80                                                           -0.26977268                              1_GWF-(84301)
 Backtracking                      45                     1          2       138.43624       57.647141                                                           
 Model                             45         78                                                           -0.26753177                              1_GWF-(84301)
 Backtracking                      46                     1          2       137.25600       58.442091                                                           
 Model                             46         95                                                           -0.26513547                              1_GWF-(84301)
 Backtracking                      47                     1          2       135.75342       59.214130                                                           
 Model                             47         82                                                           -0.26334677                              1_GWF-(84301)
 Backtracking                      48                     1          2       134.87226       59.969691                                                           
 Model                             48        103                                                           -0.26096893                              1_GWF-(84301)
 Backtracking                      49                     1          2       133.43346       60.703365                                                           
 Model                             49         81                                                           -0.25922917                              1_GWF-(84301)
 Backtracking                      50                     1          2       132.59239       61.421338                                                           
 Model                             50         81                                                           -0.25704839                              1_GWF-(84301)
 Backtracking                      51                     1          2       131.44963       62.120750                                                           
 Model                             51         92                                                           -0.25466468                              1_GWF-(84301)
 Backtracking                      52                     1          2       130.03250       62.799042                                                           
 Model                             52         93                                                           -0.25266132                              1_GWF-(84301)
 Backtracking                      53                     1          2       128.91676       63.459435                                                           
 Model                             53         82                                                           -0.25089064                              1_GWF-(84301)
 Backtracking                      54                     1          2       128.08810       64.104972                                                           
 Model                             54         96                                                           -0.24857332                              1_GWF-(84301)
 Backtracking                      55                     1          2       126.71418       64.730352                                                           
 Model                             55         91                                                           -0.24659755                              1_GWF-(84301)
 Backtracking                      56                     1          2       125.63166       65.338687                                                           
 Model                             56         84                                                           -0.24484487                              1_GWF-(84301)
 Backtracking                      57                     1          2       124.78572       65.932508                                                           
 Model                             57         94                                                           -0.24259240                              1_GWF-(84301)
 Backtracking                      58                     1          2       123.49063       66.507471                                                           
 Model                             58        103                                                           -0.24052322                              1_GWF-(84301)
 Backtracking                      59                     1          2       122.43709       67.066177                                                           
 Model                             59         91                                                           -0.23871854                              1_GWF-(84301)
 Backtracking                      60                     1          2       121.38129       67.608764                                                           
 Model                             60         92                                                           -0.23679349                              1_GWF-(84301)
 Backtracking                      61                     1          2       120.34132       68.135550                                                           
 Model                             61         91                                                           -0.23475726                              1_GWF-(84301)
 Backtracking                      62                     1          2       119.33508       68.647028                                                           
 Model                             62         99                                                           -0.23300739                              1_GWF-(84301)
 Backtracking                      63                     1          2       118.29665       69.143030                                                           
 Model                             63         95                                                           -0.23105021                              1_GWF-(84301)
 Backtracking                      64                     1          2       117.28099       69.623935                                                           
 Model                             64         89                                                           -0.22925248                              1_GWF-(84301)
 Backtracking                      65                     1          2       116.26158       70.089858                                                           
 Model                             65         91                                                           -0.22742481                              1_GWF-(84301)
 Backtracking                      66                     1          2       115.29121       70.541436                                                           
 Model                             66         76                                                           -0.22591943                              1_GWF-(84301)
 Backtracking                      67                     1          2       114.60332       70.981635                                                           
 Model                             67         88                                                           -0.22375109                              1_GWF-(84301)
 Backtracking                      68                     1          2       113.30717       71.404489                                                           
 Model                             68         83                                                           -0.22215008                              1_GWF-(84301)
 Backtracking                      69                     1          2       112.63563       71.816413                                                           
 Model                             69         88                                                           -0.22024691                              1_GWF-(84301)
 Backtracking                      70                     1          2       111.46308       72.212509                                                           
 Model                             70         92                                                           -0.21839933                              1_GWF-(84301)
 Backtracking                      71                     1          2       110.40222       72.594051                                                           
 Model                             71         96                                                           -0.21660966                              1_GWF-(84301)
 Backtracking                      72                     1          2       109.46046       72.962372                                                           
 Model                             72         90                                                           -0.21487931                              1_GWF-(84301)
 Backtracking                      73                     1          1       108.51515       76.514782                                                           
 Model                             73         88                                                           -0.19748121                              1_GWF-(84301)
 Backtracking                      74                     1          1       99.672454       78.828574                                                           
 Model                             74         93                                                           -0.18160378                              1_GWF-(84301)
 Backtracking                      75                     1          1       91.610673       80.105380                                                           
 Model                             75         91                                                           -0.16691889                              1_GWF-(84301)
 Backtracking                      76                     1          1       84.171953       80.511013                                                           
 Model                             76         93                                                           -0.15345348                              1_GWF-(84301)
 Backtracking                      77                     0          0       77.334476       77.334476                       *                                   
 Model                             77         64                                                       -2.96156019E-02                              1_GWF-(84301)
 Backtracking                      78                     0          0       14.976531       14.976531                       *                                   
 Model                             78         73                                                       -5.59754020E-03                              1_GWF-(84301)
 Backtracking                      79                     0          0       2.8857964       2.8857964                       *                                   
 Model                             79         55                                                       -1.12920666E-03                              1_GWF-(84301)
 Backtracking                      80                     0          0      0.52564555      0.52564555                       *                                   
 Model                             80          8                                                       -5.50092682E-05       *                      1_GWF-(81669)
 ----------------------------------------------------------------------------------------------------------------------------------------------------------------


 80 CALLS TO NUMERICAL SOLUTION IN TIME STEP 1 STRESS PERIOD 1
 7151 TOTAL ITERATIONS

 MEMORY MANAGER TOTAL STORAGE BY DATA TYPE, IN MEGABYTES
 -------------------------------
                    ALLOCATED   
 DATA TYPE           MEMORY     
 -------------------------------
 Character        1.04880000E-02
 Logical          4.80000000E-05
 Integer          40.411108     
 Real             97.611024     
 -------------------------------
 Total            138.03267     
 Virtual          0.0000000     
 -------------------------------


 
 Run end date and time (yyyy/mm/dd hh:mm:ss): 2026/01/11 23:33:28
 Elapsed run time: 47.625 Seconds
 Normal termination of simulation.
