                                   MODFLOW 6
                U.S. GEOLOGICAL SURVEY MODULAR HYDROLOGIC MODEL
                          GROUNDWATER FLOW MODEL (GWF)
                            VERSION 6.6.0 12/20/2024

   MODFLOW 6 compiled Dec 31 2024 17:10:16 with Intel(R) Fortran Intel(R) 64
   Compiler Classic for applications running on Intel(R) 64, Version 2021.7.0
                             Build 20220726_000000

This software has been approved for release by the U.S. Geological 
Survey (USGS). Although the software has been subjected to rigorous 
review, the USGS reserves the right to update the software as needed 
pursuant to further analysis and review. No warranty, expressed or 
implied, is made by the USGS or the U.S. Government as to the 
functionality of the software and related material nor shall the 
fact of release constitute any such warranty. Furthermore, the 
software is released on condition that neither the USGS nor the U.S. 
Government shall be held liable for any damages resulting from its 
authorized or unauthorized use. Also refer to the USGS Water 
Resources Software User Rights Notice for complete use, copyright, 
and distribution information.


As a work of the United States Government, this USGS product is 
in the public domain within the United States. You can copy, 
modify, distribute, and perform the work, even for commercial 
purposes, all without asking permission. Additionally, USGS 
waives copyright and related rights in the work worldwide 
through CC0 1.0 Universal Public Domain Dedication 
(https://creativecommons.org/publicdomain/zero/1.0/).

The following GNU Lesser General Public License (LGPL) libraries
are used in this USGS product:

    SPARSKIT version 2.0
      ilut, luson, and qsplit 
      (https://www-users.cse.umn.edu/~saad/software/SPARSKIT/)

    RCM - Reverse Cuthill McKee Ordering
      (https://people.math.sc.edu/Burkardt/f_src/rcm/rcm.html)

    BLAS - Basic Linear Algebra Subprograms Level 1
      (https://people.math.sc.edu/Burkardt/f_src/blas1_d/blas1_d.html)

    SPARSEKIT - Sparse Matrix Utility Package
      amux, dperm, dvperm, rperm, and cperm
      (https://people.sc.fsu.edu/~jburkardt/f77_src/sparsekit/sparsekit.html)

The following BSD-3 License libraries are used in this USGS product:

    Modern Fortran DAG Library
      Copyright (c) 2018, Jacob Williams
      All rights reserved.
      (https://github.com/jacobwilliams/daglib)

MODFLOW 6 compiler options: /O2 /heap-arrays:0 /fpe:0 /traceback /nologo /fpp
/c /module:win64\mod_mf6\ /object:win64\obj_mf6\

System command used to initiate simulation:
C:\Users\sebas\anaconda3\Scripts\mf6.exe

MODFLOW was compiled using uniform precision.

Real Variables
  KIND: 8
  TINY (smallest non-zero value):    2.225074-308
  HUGE (largest value):    1.797693+308
  PRECISION: 15
  SIZE IN BITS: 64

Integer Variables
  KIND: 4
  HUGE (largest value): 2147483647
  SIZE IN BITS: 32

Long Integer Variables
  KIND: 8
  HUGE (largest value): 9223372036854775807
  SIZE IN BITS: 64

Logical Variables
  KIND: 4
  SIZE IN BITS: 32
 
 NAMEFILE OPTIONS:
    FLOWS WILL BE SAVED TO BUDGET FILE SPECIFIED IN OUTPUT CONTROL
 END NAMEFILE OPTIONS:

 DISV -- VERTEX GRID DISCRETIZATION PACKAGE, VERSION 1 : 12/23/2015 - INPUT READ FROM MEMPATH: __INPUT__/TRIANGLE_CASEB/DISV                     


 Setting Discretization Options
 End Setting Discretization Options

 Setting Discretization Dimensions
    NLAY = 2
    NCPL = 25262
    NVERT = 13489
 End Setting Discretization Dimensions

 Setting Discretization Griddata
    TOP set from input file
    BOTM set from input file
 End Setting Discretization Griddata

 Discretization Vertex data loaded
 Discretization Cell2d data loaded

 NPF -- NODE PROPERTY FLOW PACKAGE, VERSION 1, 3/30/2015 INPUT READ FROM MEMPATH: __INPUT__/TRIANGLE_CASEB/NPF                      


 IC -- Initial Conditions Package, Version 8, 3/28/2015 input read from mempath: __INPUT__/TRIANGLE_CASEB/IC                       


 Setting NPF Options
    Cell-by-cell flow information will be saved to binary file whenever ICBCFL is not zero.
    Specific discharge will be calculated at cell centers and written to DATA-SPDIS in budget file when requested.
 End Setting NPF Options

 Setting NPF Griddata
    ICELLTYPE set from input file
    K set from input file
    K33 not provided.  Setting K33 = K.
    K22 not provided.  Setting K22 = K.
 End Setting NPF Griddata


 WEL   -- WEL PACKAGE, VERSION 8, 2/22/2014 INPUT READ FROM MEMPATH: __INPUT__/TRIANGLE_CASEB/WELL_PACKAGE             

 PROCESSING WEL BASE OPTIONS
    FLOWS WILL BE SAVED TO BUDGET FILE SPECIFIED IN OUTPUT CONTROL
 END OF WEL BASE OPTIONS

 PROCESSING WEL OPTIONS
 END OF WEL OPTIONS

 PROCESSING WEL BASE DIMENSIONS
    MAXBOUND =   29707
 END OF WEL BASE DIMENSIONS

 RCH   -- RCH PACKAGE, VERSION 8, 2/22/2014 INPUT READ FROM MEMPATH: __INPUT__/TRIANGLE_CASEB/RCH                      

 PROCESSING RCH BASE OPTIONS
    FLOWS WILL BE SAVED TO BUDGET FILE SPECIFIED IN OUTPUT CONTROL
    RCH FLOWS WILL BE PRINTED TO LISTING FILE.
 END OF RCH BASE OPTIONS

 PROCESSING RCH OPTIONS
    RECHARGE WILL BE APPLIED TO SPECIFIED CELL.
 END OF RCH OPTIONS

 PROCESSING RCH BASE DIMENSIONS
    MAXBOUND =   25262
 END OF RCH BASE DIMENSIONS

 EVT   -- EVT PACKAGE, VERSION 8, 2/22/2014 INPUT READ FROM MEMPATH: __INPUT__/TRIANGLE_CASEB/EVT                      

 PROCESSING EVT BASE OPTIONS
    FLOWS WILL BE SAVED TO BUDGET FILE SPECIFIED IN OUTPUT CONTROL
 END OF EVT BASE OPTIONS

 PROCESSING EVT OPTIONS
 END OF EVT OPTIONS

 PROCESSING EVT BASE DIMENSIONS
    MAXBOUND =   22297
 END OF EVT BASE DIMENSIONS

 PROCESSING EVT DIMENSIONS
    NSEG = 1
 END OF EVT DIMENSIONS

 CHD   -- CHD PACKAGE, VERSION 8, 2/22/2014 INPUT READ FROM MEMPATH: __INPUT__/TRIANGLE_CASEB/CHD                      

 PROCESSING CHD BASE OPTIONS
    FLOWS WILL BE SAVED TO BUDGET FILE SPECIFIED IN OUTPUT CONTROL
 END OF CHD BASE OPTIONS

 PROCESSING CHD BASE DIMENSIONS
    MAXBOUND =    3812
 END OF CHD BASE DIMENSIONS
    STRT set from input file
    BINARY GRID INFORMATION WILL BE WRITTEN TO:
      UNIT NUMBER: 1016
      FILE NAME: triangle_caseB.disv.grb

 OPENED triangle_caseB.disv.grb
 FILE TYPE:DATA(BINARY)   UNIT 1016   STATUS:REPLACE             
 FORMAT:UNFORMATTED            ACCESS:STREAM              
 ACTION:READWRITE           

      THE LAST TIME STEP WILL BE PRINTED
      THE LAST TIME STEP WILL BE PRINTED
 # File generated by Flopy version 3.9.1 on 02/09/2026 at 23:02:30.

 PROCESSING OC OPTIONS

    BUDGET INFORMATION WILL BE WRITTEN TO:
      UNIT NUMBER: 1017
      FILE NAME: triangle_caseB.cbc

 OPENED triangle_caseB.cbc
 FILE TYPE:DATA(BINARY)   UNIT 1017   STATUS:REPLACE             
 FORMAT:UNFORMATTED            ACCESS:STREAM              
 ACTION:READWRITE           

    HEAD INFORMATION WILL BE WRITTEN TO:
      UNIT NUMBER: 1018
      FILE NAME: triangle_caseB.hds

 OPENED triangle_caseB.hds
 FILE TYPE:DATA(BINARY)   UNIT 1018   STATUS:REPLACE             
 FORMAT:UNFORMATTED            ACCESS:STREAM              
 ACTION:READWRITE           

 END OF OC OPTIONS

start timestep kper="1" kstp="1" mode="normal"


 BEGIN READING OUTPUT CONTROL FOR STRESS PERIOD 1
      THE LAST TIME STEP WILL BE SAVED
      THE LAST TIME STEP WILL BE SAVED
      THE LAST TIME STEP WILL BE PRINTED

 END READING OUTPUT CONTROL FOR STRESS PERIOD 1
 UBDSV1 SAVING     FLOW-JA-FACE ON UNIT   1017 AT TIME STEP      1, STRESS PERIOD      1
 UBDSV06 SAVING       DATA-SPDIS IN MODEL TRIANGLE_CASEB   PACKAGE NPF             CONNECTED TO MODEL TRIANGLE_CASEB   PACKAGE NPF              ON UNIT   1017 AT TIME STEP      1, STRESS PERIOD      1
 UBDSV06 SAVING              WEL IN MODEL TRIANGLE_CASEB   PACKAGE TRIANGLE_CASEB  CONNECTED TO MODEL TRIANGLE_CASEB   PACKAGE WELL_PACKAGE     ON UNIT   1017 AT TIME STEP      1, STRESS PERIOD      1
 UBDSV06 SAVING              RCH IN MODEL TRIANGLE_CASEB   PACKAGE TRIANGLE_CASEB  CONNECTED TO MODEL TRIANGLE_CASEB   PACKAGE RCH              ON UNIT   1017 AT TIME STEP      1, STRESS PERIOD      1
 UBDSV06 SAVING              EVT IN MODEL TRIANGLE_CASEB   PACKAGE TRIANGLE_CASEB  CONNECTED TO MODEL TRIANGLE_CASEB   PACKAGE EVT              ON UNIT   1017 AT TIME STEP      1, STRESS PERIOD      1
 UBDSV06 SAVING              CHD IN MODEL TRIANGLE_CASEB   PACKAGE TRIANGLE_CASEB  CONNECTED TO MODEL TRIANGLE_CASEB   PACKAGE CHD              ON UNIT   1017 AT TIME STEP      1, STRESS PERIOD      1

 RCH PACKAGE (RCH) FLOW RATES   PERIOD      1   STEP        1
 -----------------------------------------------
   NUMBER   CELLID                    RATE      
 -----------------------------------------------
     1      (1,1)                 4.10599198E-03
     2      (1,2)                 1.87448176E-04
     3      (1,3)                 0.0000000     
     4      (1,4)                 5.58607136E-04
     5      (1,5)                 1.67605287E-03
     6      (1,6)                 1.50237590E-02
     7      (1,7)                 6.26726421E-04
     8      (1,8)                 0.0000000     
     9      (1,9)                 5.35910486E-04
     10     (1,10)                4.39105539E-04
     11     (1,11)                1.08044918E-02
     12     (1,12)                8.56517864E-03
     13     (1,13)                0.0000000     
     14     (1,14)                3.72334234E-04
     15     (1,15)                6.25734963E-03
     16     (1,16)                2.13062071E-03
     17     (1,17)                3.82340779E-04
     18     (1,18)                1.01944957E-02
     19     (1,19)                1.81684059E-02
     20     (1,20)                1.63602244E-02
     21     (1,21)                7.82444393E-03
     22     (1,22)                5.42787278E-04
     23     (1,23)                7.45863751E-04
     24     (1,24)                1.98728922E-03
     25     (1,25)                6.72052326E-03
     26     (1,26)                6.09052155E-04
     27     (1,27)                3.34993917E-04
     28     (1,28)                1.46627818E-02
     29     (1,29)                1.00689010E-04
     30     (1,30)                2.63783033E-03
     31     (1,31)                9.67776728E-05
     32     (1,32)                2.40770785E-04
     33     (1,33)                1.31330198E-04
     34     (1,34)                4.11916729E-04
     35     (1,35)                5.40055305E-04
     36     (1,36)                0.0000000     
     37     (1,37)                0.0000000     
     38     (1,38)                1.24913433E-02
     39     (1,39)                1.64589284E-04
     40     (1,40)                4.96687950E-04
     41     (1,41)                8.17296549E-04
     42     (1,42)                1.23154476E-03
     43     (1,43)                6.59535999E-05
     44     (1,44)                6.55819571E-03
     45     (1,45)                4.27955825E-04
     46     (1,46)                0.0000000     
     47     (1,47)                5.39541605E-04
     48     (1,48)                4.45903665E-05
     49     (1,49)                4.66252104E-02
     50     (1,50)                4.11578903E-03
     51     (1,51)                0.13486539    
     52     (1,52)                1.50299566E-02
     53     (1,53)                2.03547079E-04
     54     (1,54)                2.16347265E-04
     55     (1,55)                5.02811031E-02
     56     (1,56)                2.48327323E-04
     57     (1,57)                4.82129156E-04
     58     (1,58)                8.92798060E-02
     59     (1,59)                7.99256231E-04
     60     (1,60)                6.46265830E-04
     61     (1,61)                7.55702832E-02
     62     (1,62)                3.76249513E-03
     63     (1,63)                5.53759115E-04
     64     (1,64)                8.27714302E-03
     65     (1,65)                4.98043734E-03
     66     (1,66)                0.0000000     
     67     (1,67)                7.21662522E-04
     68     (1,68)                9.65518378E-04
     69     (1,69)                1.42255138E-03
     70     (1,70)                3.11803879E-03
     71     (1,71)                2.11267675E-03
     72     (1,72)                2.18558194E-03
     73     (1,73)                7.58051873E-03
     74     (1,74)                1.14701628E-03
     75     (1,75)                1.11799737E-02
     76     (1,76)                3.88628436E-03
     77     (1,77)                5.86184199E-04
     78     (1,78)                8.18702393E-04
     79     (1,79)                2.99902689E-03
     80     (1,80)                1.90589372E-03
     81     (1,81)                1.96434797E-03
     82     (1,82)                1.10648674E-03
     83     (1,83)                4.21422130E-03
     84     (1,84)                2.34806908E-03
     85     (1,85)                2.17053897E-03
     86     (1,86)                6.66140600E-03
     87     (1,87)                3.05875990E-03
     88     (1,88)                3.60701491E-03
     89     (1,89)                2.31999904E-02
     90     (1,90)                3.40793004E-03
     91     (1,91)                1.28271360E-03
     92     (1,92)                5.48033992E-05
     93     (1,93)                8.83026155E-05
     94     (1,94)                8.03583991E-04
     95     (1,95)                6.32533122E-02
     96     (1,96)                0.0000000     
     97     (1,97)                6.47393918E-02
     98     (1,98)                8.86666128E-02
     99     (1,99)                0.13926989    
    100     (1,100)               3.22069080E-04
    101     (1,101)               4.45806679E-05
    102     (1,102)               0.0000000     
    103     (1,103)               2.72067847E-02
    104     (1,104)               7.04660873E-04
    105     (1,105)               5.53564149E-04
    106     (1,106)               4.69966113E-02
    107     (1,107)               2.92810148E-04
    108     (1,108)               5.89544608E-03
    109     (1,109)               6.06129234E-03
    110     (1,110)               8.51045894E-03
    111     (1,111)               0.0000000     
    112     (1,112)               1.60831034E-02
    113     (1,113)               4.91124363E-03
    114     (1,114)               1.23902918E-03
    115     (1,115)               1.22008366E-03
    116     (1,116)               1.50005893E-03
    117     (1,117)               1.17446694E-03
    118     (1,118)               1.17301786E-03
    119     (1,119)               1.38044699E-03
    120     (1,120)               1.81424645E-03
    121     (1,121)               1.57452492E-03
    122     (1,122)               1.27265879E-03
    123     (1,123)               2.74687660E-03
    124     (1,124)               2.61893850E-03
    125     (1,125)               1.27074522E-03
    126     (1,126)               1.25013844E-03
    127     (1,127)               8.92510962E-04
    128     (1,128)               1.63837231E-03
    129     (1,129)               2.19738942E-03
    130     (1,130)               4.15246160E-04
    131     (1,131)               2.24379920E-03
    132     (1,132)               9.38383670E-04
    133     (1,133)               1.19789276E-03
    134     (1,134)               9.92534730E-04
    135     (1,135)               2.05428190E-03
    136     (1,136)               9.23297967E-03
    137     (1,137)               1.02074697E-02
    138     (1,138)               2.54631359E-03
    139     (1,139)               5.40427619E-03
    140     (1,140)               1.25812092E-03
    141     (1,141)               2.34118762E-03
    142     (1,142)               6.57526520E-04
    143     (1,143)               8.67050825E-04
    144     (1,144)               9.80544494E-04
    145     (1,145)               1.02214766E-03
    146     (1,146)               7.79088976E-04
    147     (1,147)               3.77334499E-03
    148     (1,148)               8.44199093E-04
    149     (1,149)               6.58019619E-04
    150     (1,150)               8.65301884E-04
    151     (1,151)               2.19457014E-03
    152     (1,152)               3.29611302E-03
    153     (1,153)               7.85705440E-04
    154     (1,154)               6.96360752E-04
    155     (1,155)               4.85089772E-04
    156     (1,156)               3.07048089E-04
    157     (1,157)               7.62444334E-04
    158     (1,158)               6.39647166E-04
    159     (1,159)               1.36429774E-04
    160     (1,160)               1.26069398E-03
    161     (1,161)               7.59027902E-04
    162     (1,162)               3.80674122E-04
    163     (1,163)               4.03047548E-04
    164     (1,164)               2.34071639E-04
    165     (1,165)               4.27602973E-04
    166     (1,166)               4.01764005E-04
    167     (1,167)               4.23837073E-04
    168     (1,168)               6.50211715E-04
    169     (1,169)               1.10575322E-03
    170     (1,170)               1.26300868E-03
    171     (1,171)               6.60817285E-04
    172     (1,172)               1.36661932E-04
    173     (1,173)               4.61623030E-05
    174     (1,174)               7.92766002E-04
    175     (1,175)               9.70076719E-05
    176     (1,176)               1.73878793E-04
    177     (1,177)               7.35496401E-04
    178     (1,178)               1.00923603E-04
    179     (1,179)               9.60566614E-04
    180     (1,180)               3.49465140E-04
    181     (1,181)               2.05522226E-03
    182     (1,182)               4.03533987E-05
    183     (1,183)               1.71256293E-03
    184     (1,184)               1.34845988E-03
    185     (1,185)               6.69651434E-04
    186     (1,186)               4.21132178E-03
    187     (1,187)               3.79263238E-04
    188     (1,188)               1.36273598E-03
    189     (1,189)               1.65721996E-03
    190     (1,190)               3.34880145E-03
    191     (1,191)               1.05878394E-03
    192     (1,192)               1.29061601E-03
    193     (1,193)               9.68317656E-04
    194     (1,194)               2.74139486E-03
    195     (1,195)               1.33529123E-03
    196     (1,196)               6.88364649E-04
    197     (1,197)               1.18120472E-03
    198     (1,198)               1.96628818E-03
    199     (1,199)               5.39058621E-04
    200     (1,200)               1.14787003E-03
    201     (1,201)               1.00197433E-04
    202     (1,202)               8.01375487E-04
    203     (1,203)               5.96885627E-05
    204     (1,204)               2.65184040E-04
    205     (1,205)               5.28565236E-04
    206     (1,206)               4.54541080E-04
    207     (1,207)               9.09029112E-04
    208     (1,208)               6.02696451E-05
    209     (1,209)               2.80690512E-04
    210     (1,210)               4.21786861E-03
    211     (1,211)               9.83031915E-04
    212     (1,212)               7.31190004E-04
    213     (1,213)               6.73836106E-04
    214     (1,214)               6.03029197E-04
    215     (1,215)               5.42384537E-04
    216     (1,216)               6.39369655E-03
    217     (1,217)               3.98164131E-03
    218     (1,218)               9.27101263E-04
    219     (1,219)               1.65477530E-03
    220     (1,220)               9.16390934E-04
    221     (1,221)               2.50514423E-04
    222     (1,222)               6.59500102E-04
    223     (1,223)               1.54972137E-03
    224     (1,224)               7.62345403E-04
    225     (1,225)               1.25031632E-03
    226     (1,226)               2.14479682E-03
    227     (1,227)               1.90410802E-03
    228     (1,228)               2.56988808E-03
    229     (1,229)               1.94219955E-03
    230     (1,230)               1.53474945E-03
    231     (1,231)               4.67388781E-03
    232     (1,232)               1.24611378E-03
    233     (1,233)               3.38589932E-03
    234     (1,234)               3.43313234E-03
    235     (1,235)               1.22952806E-03
    236     (1,236)               2.46506237E-03
    237     (1,237)               2.33315465E-03
    238     (1,238)               6.07838797E-04
    239     (1,239)               4.88305675E-04
    240     (1,240)               9.49035363E-04
    241     (1,241)               7.75811005E-04
    242     (1,242)               4.36216729E-05
    243     (1,243)               7.33493024E-04
    244     (1,244)               7.17797986E-04
    245     (1,245)               1.55265149E-03
    246     (1,246)               1.36298437E-03
    247     (1,247)               2.39526306E-03
    248     (1,248)               3.66103893E-03
    249     (1,249)               6.60460473E-05
    250     (1,250)               5.49123512E-05
    251     (1,251)               1.22590905E-03
    252     (1,252)               2.47144787E-04
    253     (1,253)               3.22339727E-04
    254     (1,254)               3.13537795E-04
    255     (1,255)               1.43709507E-04
    256     (1,256)               1.73788015E-03
    257     (1,257)               9.93654035E-04
    258     (1,258)               2.65971706E-04
    259     (1,259)               1.08377941E-03
    260     (1,260)               1.97469281E-03
    261     (1,261)               1.77021080E-03
    262     (1,262)               2.96053910E-04
    263     (1,263)               1.15448288E-03
    264     (1,264)               1.16974863E-03
    265     (1,265)               1.48895630E-03
    266     (1,266)               3.50578675E-03
    267     (1,267)               8.00914417E-04
    268     (1,268)               8.83275578E-04
    269     (1,269)               7.84408192E-04
    270     (1,270)               1.93231793E-03
    271     (1,271)               4.44481933E-04
    272     (1,272)               2.19219593E-03
    273     (1,273)               7.94981365E-03
    274     (1,274)               4.43536828E-04
    275     (1,275)               2.52390340E-03
    276     (1,276)               1.13912641E-03
    277     (1,277)               3.81149478E-03
    278     (1,278)               1.03487393E-03
    279     (1,279)               4.87679724E-04
    280     (1,280)               2.14847895E-03
    281     (1,281)               1.05001784E-03
    282     (1,282)               1.64591777E-03
    283     (1,283)               1.00579086E-03
    284     (1,284)               2.82674979E-03
    285     (1,285)               1.78995641E-03
    286     (1,286)               2.35032531E-03
    287     (1,287)               1.02523157E-03
    288     (1,288)               1.55197513E-03
    289     (1,289)               1.72974458E-03
    290     (1,290)               2.83510941E-03
    291     (1,291)               1.96122489E-03
    292     (1,292)               3.88312234E-04
    293     (1,293)               1.04341725E-04
    294     (1,294)               9.35080084E-04
    295     (1,295)               1.36743143E-03
    296     (1,296)               1.03082570E-04
    297     (1,297)               4.40403539E-04
    298     (1,298)               6.20141055E-04
    299     (1,299)               8.97941302E-04
    300     (1,300)               4.40363363E-04
    301     (1,301)               1.71443321E-03
    302     (1,302)               9.22504031E-04
    303     (1,303)               1.20870814E-03
    304     (1,304)               9.09432995E-04
    305     (1,305)               8.80772654E-04
    306     (1,306)               8.89464788E-04
    307     (1,307)               2.51770915E-03
    308     (1,308)               5.39114201E-04
    309     (1,309)               2.05713125E-03
    310     (1,310)               3.51707341E-03
    311     (1,311)               4.41732703E-04
    312     (1,312)               1.27055882E-03
    313     (1,313)               7.69597504E-04
    314     (1,314)               1.31602748E-03
    315     (1,315)               9.75306092E-04
    316     (1,316)               1.44485733E-03
    317     (1,317)               8.03996560E-04
    318     (1,318)               8.02986180E-04
    319     (1,319)               2.16271589E-03
    320     (1,320)               2.22791845E-03
    321     (1,321)               4.42671183E-04
    322     (1,322)               3.79467094E-03
    323     (1,323)               3.35514067E-03
    324     (1,324)               2.14320459E-03
    325     (1,325)               1.45467450E-03
    326     (1,326)               1.75995496E-03
    327     (1,327)               3.40207627E-03
    328     (1,328)               8.48143553E-04
    329     (1,329)               1.00574028E-04
    330     (1,330)               1.25438004E-04
    331     (1,331)               2.60584936E-05
    332     (1,332)               3.94565529E-05
    333     (1,333)               8.14059271E-04
    334     (1,334)               8.68937649E-04
    335     (1,335)               7.27174975E-04
    336     (1,336)               3.47685045E-03
    337     (1,337)               7.65474581E-04
    338     (1,338)               1.07117591E-03
    339     (1,339)               2.33250674E-04
    340     (1,340)               5.41375838E-04
    341     (1,341)               1.69617914E-03
    342     (1,342)               2.27999226E-04
    343     (1,343)               2.98933236E-04
    344     (1,344)               7.39929112E-04
    345     (1,345)               7.52095342E-04
    346     (1,346)               1.57049651E-03
    347     (1,347)               8.07030457E-04
    348     (1,348)               2.14614294E-03
    349     (1,349)               1.41467947E-03
    350     (1,350)               4.36113262E-03
    351     (1,351)               1.33887503E-03
    352     (1,352)               4.43580349E-04
    353     (1,353)               2.13415808E-03
    354     (1,354)               1.30975939E-03
    355     (1,355)               4.45703161E-04
    356     (1,356)               2.14388277E-03
    357     (1,357)               1.70392991E-03
    358     (1,358)               1.00342398E-03
    359     (1,359)               4.45082841E-04
    360     (1,360)               4.36018842E-03
    361     (1,361)               1.05357367E-03
    362     (1,362)               4.43531981E-04
    363     (1,363)               1.74725036E-03
    364     (1,364)               2.87925903E-03
    365     (1,365)               4.60437793E-04
    366     (1,366)               1.56386228E-03
    367     (1,367)               4.43307801E-03
    368     (1,368)               4.60294372E-04
    369     (1,369)               3.75823697E-03
    370     (1,370)               4.44535585E-03
    371     (1,371)               1.75214833E-03
    372     (1,372)               2.13414370E-03
    373     (1,373)               1.43840130E-03
    374     (1,374)               4.31823926E-03
    375     (1,375)               1.68105226E-03
    376     (1,376)               8.82608538E-04
    377     (1,377)               5.34424752E-03
    378     (1,378)               2.22775755E-03
    379     (1,379)               2.61935361E-03
    380     (1,380)               1.49110726E-03
    381     (1,381)               4.08177613E-03
    382     (1,382)               4.82300313E-04
    383     (1,383)               1.73978358E-04
    384     (1,384)               3.31900637E-04
    385     (1,385)               3.74766386E-03
    386     (1,386)               1.42536117E-02
    387     (1,387)               1.50935046E-04
    388     (1,388)               1.20333285E-02
    389     (1,389)               3.59479439E-03
    390     (1,390)               4.05108683E-02
    391     (1,391)               4.41763228E-04
    392     (1,392)               6.77762628E-02
    393     (1,393)               4.41962983E-04
    394     (1,394)               1.72536297E-03
    395     (1,395)               1.69004046E-03
    396     (1,396)               4.42934993E-04
    397     (1,397)               4.76759751E-03
    398     (1,398)               3.96658460E-03
    399     (1,399)               1.54472669E-04
    400     (1,400)               7.28673795E-02
    401     (1,401)               9.75049449E-04
    402     (1,402)               2.42301420E-03
    403     (1,403)               1.94399658E-03
    404     (1,404)               4.42715919E-04
    405     (1,405)               4.53849064E-04
    406     (1,406)               1.55139058E-03
    407     (1,407)               4.55103276E-04
    408     (1,408)               2.84196313E-02
    409     (1,409)               1.56315764E-02
    410     (1,410)               1.68619902E-03
    411     (1,411)               6.73046898E-04
    412     (1,412)               1.09245337E-03
    413     (1,413)               4.42845300E-04
    414     (1,414)               6.71149877E-04
    415     (1,415)               4.41050796E-04
    416     (1,416)               2.13577807E-03
    417     (1,417)               1.68271544E-03
    418     (1,418)               4.41910971E-04
    419     (1,419)               2.13620708E-03
    420     (1,420)               2.13234151E-03
    421     (1,421)               4.38550156E-03
    422     (1,422)               4.42619596E-03
    423     (1,423)               4.44476734E-03
    424     (1,424)               1.08845050E-03
    425     (1,425)               6.74024553E-04
    426     (1,426)               1.72951709E-03
    427     (1,427)               1.36905601E-03
    428     (1,428)               9.96185528E-04
    429     (1,429)               3.10636202E-03
    430     (1,430)               2.67574883E-03
    431     (1,431)               1.26445109E-03
    432     (1,432)               2.21332688E-03
    433     (1,433)               1.30103734E-03
    434     (1,434)               1.07939020E-03
    435     (1,435)               7.50649321E-04
    436     (1,436)               6.73081666E-04
    437     (1,437)               7.51598727E-04
    438     (1,438)               2.19415894E-03
    439     (1,439)               2.35419477E-04
    440     (1,440)               1.58071038E-03
    441     (1,441)               2.22212781E-03
    442     (1,442)               1.17124967E-03
    443     (1,443)               6.73366015E-04
    444     (1,444)               7.80804811E-04
    445     (1,445)               1.11734936E-03
    446     (1,446)               1.29584186E-03
    447     (1,447)               7.25372455E-03
    448     (1,448)               1.06408829E-03
    449     (1,449)               2.50986787E-03
    450     (1,450)               3.96979865E-03
    451     (1,451)               2.13244430E-03
    452     (1,452)               4.41380114E-04
    453     (1,453)               4.41314409E-04
    454     (1,454)               1.90226301E-03
    455     (1,455)               9.47182154E-04
    456     (1,456)               1.25073266E-03
    457     (1,457)               1.08109432E-03
    458     (1,458)               6.81909446E-04
    459     (1,459)               2.09139208E-03
    460     (1,460)               3.80187373E-03
    461     (1,461)               1.54244516E-03
    462     (1,462)               8.67715444E-04
    463     (1,463)               3.40604180E-03
    464     (1,464)               1.67964375E-03
    465     (1,465)               9.35501657E-04
    466     (1,466)               2.99750269E-03
    467     (1,467)               1.67727809E-03
    468     (1,468)               1.56355266E-03
    469     (1,469)               3.59500440E-03
    470     (1,470)               2.09501205E-03
    471     (1,471)               4.26800753E-03
    472     (1,472)               1.25518803E-03
    473     (1,473)               9.25748198E-03
    474     (1,474)               7.96057693E-05
    475     (1,475)               1.85294669E-03
    476     (1,476)               1.44010936E-04
    477     (1,477)               2.10482239E-02
    478     (1,478)               4.54164806E-04
    479     (1,479)               1.27050950E-02
    480     (1,480)               3.69948040E-02
    481     (1,481)               7.15871522E-08
    482     (1,482)               4.75194540E-02
    483     (1,483)               1.55093372E-03
    484     (1,484)               4.09270929E-03
    485     (1,485)               1.09547395E-03
    486     (1,486)               1.09774821E-03
    487     (1,487)               1.73973511E-03
    488     (1,488)               1.87203799E-03
    489     (1,489)               8.75644887E-03
    490     (1,490)               4.42452822E-03
    491     (1,491)               5.06212979E-04
    492     (1,492)               1.72466340E-03
    493     (1,493)               2.44979144E-02
    494     (1,494)               6.03347824E-05
    495     (1,495)               6.89935819E-04
    496     (1,496)               2.51596549E-02
    497     (1,497)               7.80981074E-04
    498     (1,498)               7.66032066E-04
    499     (1,499)               4.16878035E-03
    500     (1,500)               3.30688825E-03
    501     (1,501)               0.0000000     
    502     (1,502)               1.62713373E-03
    503     (1,503)               0.0000000     
    504     (1,504)               4.53030356E-03
    505     (1,505)               4.39226387E-03
    506     (1,506)               7.55550049E-04
    507     (1,507)               3.30234851E-03
    508     (1,508)               6.74591696E-03
    509     (1,509)               8.36671391E-04
    510     (1,510)               1.61143154E-03
    511     (1,511)               2.08023840E-03
    512     (1,512)               1.55355800E-03
    513     (1,513)               1.72422091E-03
    514     (1,514)               4.21251515E-04
    515     (1,515)               1.86934527E-03
    516     (1,516)               7.18062835E-04
    517     (1,517)               1.91037593E-04
    518     (1,518)               4.12481892E-03
    519     (1,519)               4.40411116E-04
    520     (1,520)               1.10041511E-03
    521     (1,521)               1.68080893E-03
    522     (1,522)               4.39933751E-04
    523     (1,523)               4.19333692E-04
    524     (1,524)               1.67464266E-03
    525     (1,525)               2.03072600E-03
    526     (1,526)               4.12183635E-03
    527     (1,527)               1.67911823E-03
    528     (1,528)               1.60099979E-03
    529     (1,529)               4.39519425E-04
    530     (1,530)               2.12382018E-03
    531     (1,531)               4.99881366E-03
    532     (1,532)               2.40452702E-03
    533     (1,533)               4.25538564E-03
    534     (1,534)               4.38972996E-04
    535     (1,535)               4.24525927E-03
    536     (1,536)               1.67039243E-03
    537     (1,537)               2.12241326E-03
    538     (1,538)               2.68004457E-03
    539     (1,539)               4.21640558E-04
    540     (1,540)               5.30819947E-03
    541     (1,541)               6.77914580E-04
    542     (1,542)               4.18113502E-04
    543     (1,543)               2.02754620E-03
    544     (1,544)               5.87518036E-04
    545     (1,545)               7.21721735E-04
    546     (1,546)               2.22350463E-03
    547     (1,547)               1.77191274E-03
    548     (1,548)               8.82246912E-04
    549     (1,549)               6.90490595E-04
    550     (1,550)               2.32566164E-03
    551     (1,551)               9.68836463E-04
    552     (1,552)               1.18023815E-03
    553     (1,553)               1.17018018E-03
    554     (1,554)               2.45912232E-03
    555     (1,555)               1.13718877E-03
    556     (1,556)               2.53882097E-03
    557     (1,557)               5.45650536E-04
    558     (1,558)               2.55379876E-03
    559     (1,559)               6.12080073E-04
    560     (1,560)               1.68063701E-03
    561     (1,561)               1.27920895E-03
    562     (1,562)               8.30673281E-04
    563     (1,563)               4.55293689E-04
    564     (1,564)               1.20507678E-03
    565     (1,565)               0.0000000     
    566     (1,566)               2.97356091E-03
    567     (1,567)               5.83584384E-04
    568     (1,568)               9.39602684E-03
    569     (1,569)               1.86529399E-03
    570     (1,570)               4.93542701E-03
    571     (1,571)               1.92089005E-03
    572     (1,572)               7.64797289E-04
    573     (1,573)               1.51585853E-03
    574     (1,574)               8.36517009E-04
    575     (1,575)               4.19645705E-04
    576     (1,576)               5.65042592E-04
    577     (1,577)               3.26448948E-03
    578     (1,578)               9.86067033E-04
    579     (1,579)               6.18914401E-04
    580     (1,580)               8.16111786E-04
    581     (1,581)               9.32419634E-04
    582     (1,582)               6.01116496E-04
    583     (1,583)               1.34462158E-03
    584     (1,584)               1.08508321E-03
    585     (1,585)               1.75002924E-03
    586     (1,586)               3.11900495E-03
    587     (1,587)               1.28703833E-03
    588     (1,588)               2.90362300E-03
    589     (1,589)               1.07358357E-03
    590     (1,590)               1.13767668E-03
    591     (1,591)               6.37616873E-04
    592     (1,592)               1.22641605E-03
    593     (1,593)               9.26875252E-04
    594     (1,594)               3.12023197E-03
    595     (1,595)               9.71453626E-04
    596     (1,596)               7.02971330E-04
    597     (1,597)               6.88164435E-04
    598     (1,598)               8.44969088E-04
    599     (1,599)               4.05438917E-03
    600     (1,600)               2.10735756E-03
    601     (1,601)               2.98329504E-03
    602     (1,602)               3.56586705E-03
    603     (1,603)               2.37638281E-03
    604     (1,604)               2.45805735E-03
    605     (1,605)               1.47592240E-03
    606     (1,606)               7.04611342E-04
    607     (1,607)               5.98887936E-04
    608     (1,608)               6.03168711E-04
    609     (1,609)               5.16775495E-04
    610     (1,610)               2.61789898E-03
    611     (1,611)               7.15927924E-04
    612     (1,612)               3.04453194E-03
    613     (1,613)               1.18180436E-03
    614     (1,614)               2.62936301E-03
    615     (1,615)               7.86287123E-04
    616     (1,616)               6.29123614E-04
    617     (1,617)               8.27744756E-04
    618     (1,618)               5.90078004E-04
    619     (1,619)               8.57502091E-04
    620     (1,620)               6.20666344E-04
    621     (1,621)               8.20933406E-04
    622     (1,622)               3.68232385E-04
    623     (1,623)               1.47216159E-03
    624     (1,624)               2.22610008E-03
    625     (1,625)               4.27157737E-04
    626     (1,626)               1.58897297E-03
    627     (1,627)               1.73803457E-03
    628     (1,628)               4.23571406E-04
    629     (1,629)               1.49859836E-03
    630     (1,630)               8.69290684E-04
    631     (1,631)               8.41324151E-04
    632     (1,632)               1.49911197E-03
    633     (1,633)               1.85219705E-03
    634     (1,634)               1.67039743E-03
    635     (1,635)               2.83608194E-04
    636     (1,636)               6.87159641E-04
    637     (1,637)               4.31491051E-04
    638     (1,638)               1.96924485E-03
    639     (1,639)               1.13104301E-03
    640     (1,640)               8.57140466E-04
    641     (1,641)               6.41738491E-04
    642     (1,642)               1.21120094E-03
    643     (1,643)               1.73817455E-03
    644     (1,644)               1.61277775E-03
    645     (1,645)               1.41711006E-03
    646     (1,646)               2.55287439E-03
    647     (1,647)               9.49416015E-04
    648     (1,648)               1.34999102E-03
    649     (1,649)               2.59776402E-03
    650     (1,650)               1.41375490E-03
    651     (1,651)               2.81936053E-03
    652     (1,652)               2.01639176E-03
    653     (1,653)               4.49114503E-03
    654     (1,654)               5.39150431E-04
    655     (1,655)               8.53930889E-04
    656     (1,656)               1.61383000E-03
    657     (1,657)               4.12406618E-03
    658     (1,658)               7.82114400E-04
    659     (1,659)               3.11910769E-03
    660     (1,660)               3.15392064E-03
    661     (1,661)               1.26394436E-03
    662     (1,662)               2.08520267E-03
    663     (1,663)               4.27678479E-04
    664     (1,664)               9.88277671E-04
    665     (1,665)               7.76065346E-03
    666     (1,666)               4.30025070E-04
    667     (1,667)               9.88626043E-04
    668     (1,668)               1.12832957E-03
    669     (1,669)               4.33296627E-04
    670     (1,670)               2.07117094E-03
    671     (1,671)               2.32925743E-03
    672     (1,672)               6.85221682E-04
    673     (1,673)               1.65565588E-03
    674     (1,674)               2.24333430E-03
    675     (1,675)               2.07743171E-03
    676     (1,676)               4.31365684E-04
    677     (1,677)               8.76526989E-04
    678     (1,678)               4.66724497E-04
    679     (1,679)               3.25646014E-03
    680     (1,680)               8.33745678E-04
    681     (1,681)               8.61717086E-04
    682     (1,682)               4.12533801E-04
    683     (1,683)               1.67116670E-03
    684     (1,684)               1.00444143E-03
    685     (1,685)               1.27049439E-03
    686     (1,686)               2.36568298E-03
    687     (1,687)               6.85729169E-04
    688     (1,688)               1.32833381E-03
    689     (1,689)               3.74836186E-04
    690     (1,690)               1.69554294E-03
    691     (1,691)               2.63669071E-04
    692     (1,692)               3.33540251E-04
    693     (1,693)               9.66084306E-04
    694     (1,694)               4.41535387E-04
    695     (1,695)               6.72403693E-04
    696     (1,696)               7.50147988E-04
    697     (1,697)               7.00038112E-04
    698     (1,698)               7.49140343E-04
    699     (1,699)               4.40965154E-04
    700     (1,700)               1.49951215E-03
    701     (1,701)               8.70991910E-04
    702     (1,702)               4.23431296E-04
    703     (1,703)               2.66745067E-04
    704     (1,704)               2.13234881E-03
    705     (1,705)               5.92281430E-04
    706     (1,706)               1.04147081E-03
    707     (1,707)               9.91670781E-04
    708     (1,708)               1.12310623E-03
    709     (1,709)               8.26272321E-04
    710     (1,710)               7.24504447E-04
    711     (1,711)               4.74964471E-04
    712     (1,712)               7.29393617E-04
    713     (1,713)               7.23969773E-04
    714     (1,714)               9.97026964E-04
    715     (1,715)               9.15559565E-04
    716     (1,716)               6.48141382E-04
    717     (1,717)               5.74669263E-04
    718     (1,718)               8.91547378E-04
    719     (1,719)               3.53429567E-04
    720     (1,720)               6.50917999E-04
    721     (1,721)               5.87505106E-04
    722     (1,722)               4.28919220E-03
    723     (1,723)               6.54418714E-04
    724     (1,724)               1.69335228E-03
    725     (1,725)               4.11520880E-03
    726     (1,726)               7.30027517E-04
    727     (1,727)               7.30125676E-04
    728     (1,728)               1.61092816E-03
    729     (1,729)               1.49316092E-03
    730     (1,730)               7.09830160E-04
    731     (1,731)               1.89215634E-03
    732     (1,732)               4.29276864E-04
    733     (1,733)               9.30637344E-04
    734     (1,734)               1.63448541E-03
    735     (1,735)               7.25477134E-04
    736     (1,736)               1.59991666E-03
    737     (1,737)               4.41932387E-04
    738     (1,738)               2.13089223E-03
    739     (1,739)               5.24723397E-04
    740     (1,740)               1.12767031E-03
    741     (1,741)               3.82648989E-03
    742     (1,742)               1.04780648E-03
    743     (1,743)               2.59944067E-03
    744     (1,744)               1.67405574E-03
    745     (1,745)               4.28153138E-03
    746     (1,746)               7.49382881E-04
    747     (1,747)               4.41471753E-04
    748     (1,748)               3.43899500E-03
    749     (1,749)               3.33227436E-03
    750     (1,750)               2.44106553E-03
    751     (1,751)               2.83509514E-03
    752     (1,752)               2.08792511E-03
    753     (1,753)               1.15621051E-03
    754     (1,754)               1.86121855E-03
    755     (1,755)               7.67265071E-04
    756     (1,756)               7.09200358E-04
    757     (1,757)               3.14962475E-03
    758     (1,758)               1.52175237E-02
    759     (1,759)               9.43730184E-04
    760     (1,760)               1.39834132E-04
    761     (1,761)               2.61573644E-05
    762     (1,762)               5.63204270E-03
    763     (1,763)               4.20036932E-04
    764     (1,764)               1.59917778E-03
    765     (1,765)               2.02821003E-03
    766     (1,766)               4.19966022E-04
    767     (1,767)               1.02074164E-03
    768     (1,768)               2.02893601E-03
    769     (1,769)               4.07295255E-03
    770     (1,770)               4.07110108E-03
    771     (1,771)               4.18467757E-04
    772     (1,772)               1.57287607E-03
    773     (1,773)               0.0000000     
    774     (1,774)               2.02035876E-03
    775     (1,775)               6.78657337E-03
    776     (1,776)               1.59539622E-03
    777     (1,777)               1.59958356E-03
    778     (1,778)               4.18662720E-04
    779     (1,779)               4.07106207E-03
    780     (1,780)               2.02090080E-03
    781     (1,781)               4.20294421E-04
    782     (1,782)               1.59945525E-03
    783     (1,783)               4.20607966E-04
    784     (1,784)               1.60028457E-03
    785     (1,785)               3.03950770E-03
    786     (1,786)               2.03120191E-03
    787     (1,787)               2.03203348E-03
    788     (1,788)               1.01547226E-03
    789     (1,789)               8.71952514E-04
    790     (1,790)               4.20889261E-04
    791     (1,791)               4.08092326E-03
    792     (1,792)               4.20899144E-04
    793     (1,793)               4.20222016E-04
    794     (1,794)               1.02120338E-03
    795     (1,795)               1.38238127E-03
    796     (1,796)               1.44664210E-03
    797     (1,797)               8.83622080E-04
    798     (1,798)               8.71695900E-04
    799     (1,799)               4.20963026E-04
    800     (1,800)               2.95592315E-03
    801     (1,801)               4.20617559E-04
    802     (1,802)               8.92872061E-04
    803     (1,803)               8.84037210E-04
    804     (1,804)               1.38219429E-03
    805     (1,805)               1.59464908E-03
    806     (1,806)               4.00854114E-03
    807     (1,807)               4.10501389E-04
    808     (1,808)               4.65084833E-03
    809     (1,809)               1.56575589E-03
    810     (1,810)               4.10673754E-04
    811     (1,811)               1.40968243E-03
    812     (1,812)               1.75846178E-03
    813     (1,813)               2.12377058E-03
    814     (1,814)               8.09310890E-04
    815     (1,815)               1.26910032E-03
    816     (1,816)               1.63521045E-03
    817     (1,817)               3.07179581E-03
    818     (1,818)               3.98804621E-03
    819     (1,819)               4.10113074E-04
    820     (1,820)               1.16166565E-03
    821     (1,821)               4.10297223E-04
    822     (1,822)               1.98132525E-03
    823     (1,823)               1.70150597E-03
    824     (1,824)               1.48173465E-03
    825     (1,825)               1.98186983E-03
    826     (1,826)               2.45945061E-03
    827     (1,827)               1.13337318E-03
    828     (1,828)               1.59368857E-03
    829     (1,829)               4.61942529E-03
    830     (1,830)               3.81173710E-03
    831     (1,831)               1.63124228E-03
    832     (1,832)               2.11654783E-03
    833     (1,833)               4.13033064E-04
    834     (1,834)               4.00406433E-03
    835     (1,835)               1.78567646E-03
    836     (1,836)               1.57269874E-03
    837     (1,837)               4.13468348E-03
    838     (1,838)               1.57359649E-03
    839     (1,839)               6.86945054E-04
    840     (1,840)               6.22201842E-04
    841     (1,841)               7.49356930E-04
    842     (1,842)               9.61003515E-04
    843     (1,843)               6.99787427E-04
    844     (1,844)               2.28079687E-03
    845     (1,845)               1.21345046E-03
    846     (1,846)               6.27765676E-04
    847     (1,847)               6.45313996E-04
    848     (1,848)               1.67510390E-03
    849     (1,849)               3.37611194E-03
    850     (1,850)               1.16415323E-03
    851     (1,851)               4.13261396E-04
    852     (1,852)               7.00436166E-04
    853     (1,853)               9.18863540E-04
    854     (1,854)               6.95278625E-03
    855     (1,855)               3.67238125E-03
    856     (1,856)               1.24687267E-03
    857     (1,857)               3.57008806E-03
    858     (1,858)               4.22071817E-04
    859     (1,859)               4.23526632E-04
    860     (1,860)               1.61223422E-03
    861     (1,861)               2.04542896E-03
    862     (1,862)               4.23541369E-04
    863     (1,863)               1.60638523E-03
    864     (1,864)               1.42721348E-03
    865     (1,865)               4.21756346E-04
    866     (1,866)               2.20407773E-03
    867     (1,867)               4.21725916E-04
    868     (1,868)               3.19275136E-03
    869     (1,869)               4.22097555E-04
    870     (1,870)               2.03670484E-03
    871     (1,871)               2.11095049E-03
    872     (1,872)               1.09169364E-03
    873     (1,873)               2.03771740E-03
    874     (1,874)               1.17464423E-03
    875     (1,875)               2.92869061E-03
    876     (1,876)               1.60221229E-03
    877     (1,877)               4.23935409E-04
    878     (1,878)               4.23974415E-04
    879     (1,879)               2.04661844E-03
    880     (1,880)               4.33931192E-04
    881     (1,881)               4.34126430E-04
    882     (1,882)               1.43234666E-03
    883     (1,883)               4.24055311E-04
    884     (1,884)               7.21054791E-04
    885     (1,885)               9.44352103E-04
    886     (1,886)               7.20612608E-04
    887     (1,887)               1.19262489E-03
    888     (1,888)               1.22963719E-03
    889     (1,889)               2.17234817E-03
    890     (1,890)               4.23328829E-04
    891     (1,891)               1.11145508E-03
    892     (1,892)               4.23971919E-04
    893     (1,893)               4.23682536E-04
    894     (1,894)               1.11095449E-03
    895     (1,895)               2.04771497E-03
    896     (1,896)               2.04504759E-03
    897     (1,897)               2.04881227E-03
    898     (1,898)               1.77184658E-03
    899     (1,899)               1.61532926E-03
    900     (1,900)               3.43828034E-03
    901     (1,901)               4.20883752E-04
    902     (1,902)               2.03269673E-03
    903     (1,903)               2.03353240E-03
    904     (1,904)               4.07367235E-03
    905     (1,905)               4.21171313E-04
    906     (1,906)               1.16612025E-03
    907     (1,907)               2.06677356E-02
    908     (1,908)               4.21262767E-04
    909     (1,909)               2.62832147E-03
    910     (1,910)               1.60421627E-03
    911     (1,911)               1.40776182E-03
    912     (1,912)               1.57202746E-03
    913     (1,913)               4.12641926E-04
    914     (1,914)               1.55987331E-03
    915     (1,915)               4.89335347E-04
    916     (1,916)               3.42643348E-04
    917     (1,917)               1.40852725E-03
    918     (1,918)               9.96247756E-04
    919     (1,919)               1.02424380E-03
    920     (1,920)               3.69904831E-04
    921     (1,921)               4.08714760E-03
    922     (1,922)               1.33905111E-03
    923     (1,923)               1.22344430E-03
    924     (1,924)               5.53254472E-04
    925     (1,925)               7.32507992E-04
    926     (1,926)               6.34796376E-04
    927     (1,927)               1.61179427E-03
    928     (1,928)               9.30961466E-04
    929     (1,929)               4.23206049E-04
    930     (1,930)               2.20090456E-03
    931     (1,931)               2.04406485E-03
    932     (1,932)               6.34568888E-04
    933     (1,933)               7.17723476E-04
    934     (1,934)               1.55705924E-03
    935     (1,935)               6.34314559E-04
    936     (1,936)               4.64527982E-04
    937     (1,937)               2.99493313E-03
    938     (1,938)               1.47321905E-03
    939     (1,939)               3.40899364E-03
    940     (1,940)               1.78779659E-03
    941     (1,941)               7.01488639E-04
    942     (1,942)               1.02680949E-03
    943     (1,943)               1.61317206E-03
    944     (1,944)               4.10151596E-03
    945     (1,945)               1.60809167E-03
    946     (1,946)               1.82266401E-03
    947     (1,947)               1.42064552E-03
    948     (1,948)               1.88320789E-03
    949     (1,949)               9.15057892E-05
    950     (1,950)               1.32361532E-03
    951     (1,951)               3.03387584E-04
    952     (1,952)               0.0000000     
    953     (1,953)               5.62085454E-04
    954     (1,954)               4.94882868E-06
    955     (1,955)               1.34389388E-04
    956     (1,956)               3.83018709E-04
    957     (1,957)               8.03870549E-05
    958     (1,958)               5.18172871E-04
    959     (1,959)               3.79491455E-03
    960     (1,960)               6.18405755E-04
    961     (1,961)               2.94973285E-04
    962     (1,962)               4.60089671E-07
    963     (1,963)               7.40516783E-07
    964     (1,964)               0.0000000     
    965     (1,965)               4.51262026E-02
    966     (1,966)               6.36182214E-03
    967     (1,967)               6.65204033E-03
    968     (1,968)               0.0000000     
    969     (1,969)               3.54836961E-02
    970     (1,970)               1.48646812E-03
    971     (1,971)               3.97782745E-03
    972     (1,972)               0.0000000     
    973     (1,973)               5.94220694E-04
    974     (1,974)               1.27824734E-03
    975     (1,975)               2.82699933E-03
    976     (1,976)               1.29572672E-03
    977     (1,977)               2.99560043E-03
    978     (1,978)               2.10902483E-03
    979     (1,979)               6.43883615E-04
    980     (1,980)               3.11302704E-03
    981     (1,981)               1.69040308E-03
    982     (1,982)               1.75145827E-03
    983     (1,983)               2.00414974E-03
    984     (1,984)               2.26596592E-03
    985     (1,985)               1.38321730E-03
    986     (1,986)               6.08997031E-03
    987     (1,987)               5.09828029E-04
    988     (1,988)               1.08086615E-03
    989     (1,989)               1.57752746E-03
    990     (1,990)               7.31409663E-03
    991     (1,991)               1.38420002E-03
    992     (1,992)               1.55220109E-02
    993     (1,993)               1.54441338E-03
    994     (1,994)               6.10094282E-02
    995     (1,995)               3.31939748E-03
    996     (1,996)               1.30756736E-03
    997     (1,997)               4.00171500E-04
    998     (1,998)               6.91545959E-02
    999     (1,999)               4.00796351E-04
    1000    (1,1000)              2.44644957E-03
    1001    (1,1001)              1.93440768E-03
    1002    (1,1002)              3.89162365E-03
    1003    (1,1003)              1.35362918E-03
    1004    (1,1004)              1.93388460E-03
    1005    (1,1005)              1.52876121E-03
    1006    (1,1006)              1.23314282E-03
    1007    (1,1007)              3.96992087E-04
    1008    (1,1008)              3.85265945E-03
    1009    (1,1009)              3.97698164E-04
    1010    (1,1010)              1.11433815E-03
    1011    (1,1011)              1.91913852E-03
    1012    (1,1012)              1.25410760E-03
    1013    (1,1013)              3.97856175E-04
    1014    (1,1014)              1.91870829E-03
    1015    (1,1015)              2.73857918E-03
    1016    (1,1016)              3.84394280E-03
    1017    (1,1017)              3.22095641E-03
    1018    (1,1018)              2.20401993E-02
    1019    (1,1019)              2.81222309E-03
    1020    (1,1020)              1.10846625E-03
    1021    (1,1021)              3.44465469E-03
    1022    (1,1022)              1.23606534E-03
    1023    (1,1023)              4.01613880E-04
    1024    (1,1024)              9.70168152E-04
    1025    (1,1025)              2.95126211E-03
    1026    (1,1026)              1.53171532E-03
    1027    (1,1027)              3.44511902E-03
    1028    (1,1028)              1.03809409E-03
    1029    (1,1029)              3.97138162E-04
    1030    (1,1030)              2.83615209E-03
    1031    (1,1031)              1.93865420E-03
    1032    (1,1032)              3.64347408E-03
    1033    (1,1033)              1.04531420E-03
    1034    (1,1034)              1.96224652E-03
    1035    (1,1035)              1.34632333E-03
    1036    (1,1036)              2.78303822E-03
    1037    (1,1037)              4.00345179E-04
    1038    (1,1038)              3.84779819E-03
    1039    (1,1039)              9.92726864E-03
    1040    (1,1040)              4.00964622E-04
    1041    (1,1041)              3.66355263E-03
    1042    (1,1042)              2.21884063E-03
    1043    (1,1043)              3.93166367E-03
    1044    (1,1044)              3.84169894E-03
    1045    (1,1045)              9.86683685E-04
    1046    (1,1046)              2.07796909E-03
    1047    (1,1047)              4.09787004E-04
    1048    (1,1048)              2.58562384E-03
    1049    (1,1049)              1.86739935E-04
    1050    (1,1050)              1.20581624E-03
    1051    (1,1051)              2.24838589E-04
    1052    (1,1052)              2.93620338E-04
    1053    (1,1053)              4.48001793E-03
    1054    (1,1054)              5.63470636E-04
    1055    (1,1055)              9.54253136E-04
    1056    (1,1056)              1.11174923E-03
    1057    (1,1057)              5.63316094E-04
    1058    (1,1058)              2.84203966E-03
    1059    (1,1059)              1.10420402E-04
    1060    (1,1060)              1.15575936E-03
    1061    (1,1061)              2.21357907E-04
    1062    (1,1062)              5.69149360E-04
    1063    (1,1063)              1.47935558E-04
    1064    (1,1064)              9.46179035E-04
    1065    (1,1065)              1.13507194E-03
    1066    (1,1066)              1.53693828E-03
    1067    (1,1067)              2.42770193E-04
    1068    (1,1068)              5.66840466E-05
    1069    (1,1069)              5.65866334E-04
    1070    (1,1070)              1.10812179E-03
    1071    (1,1071)              6.26894991E-04
    1072    (1,1072)              9.46497940E-04
    1073    (1,1073)              2.64477320E-03
    1074    (1,1074)              5.80124051E-04
    1075    (1,1075)              1.02701705E-03
    1076    (1,1076)              1.95193159E-03
    1077    (1,1077)              3.99691907E-04
    1078    (1,1078)              5.60383886E-04
    1079    (1,1079)              5.99538471E-04
    1080    (1,1080)              8.34745287E-04
    1081    (1,1081)              6.00403827E-04
    1082    (1,1082)              2.43386079E-03
    1083    (1,1083)              1.13061495E-03
    1084    (1,1084)              4.64340436E-04
    1085    (1,1085)              7.94392021E-04
    1086    (1,1086)              1.55568881E-03
    1087    (1,1087)              2.39084846E-03
    1088    (1,1088)              2.09395151E-03
    1089    (1,1089)              1.85895048E-04
    1090    (1,1090)              1.04729356E-03
    1091    (1,1091)              1.65778417E-04
    1092    (1,1092)              1.55220066E-03
    1093    (1,1093)              5.60269564E-04
    1094    (1,1094)              3.25974125E-04
    1095    (1,1095)              6.78365344E-04
    1096    (1,1096)              1.11342866E-03
    1097    (1,1097)              5.35495594E-04
    1098    (1,1098)              3.30227409E-03
    1099    (1,1099)              1.83359977E-02
    1100    (1,1100)              1.45321277E-04
    1101    (1,1101)              2.49788919E-04
    1102    (1,1102)              5.21099612E-04
    1103    (1,1103)              1.70036259E-04
    1104    (1,1104)              2.21500894E-04
    1105    (1,1105)              4.16078185E-04
    1106    (1,1106)              3.94660065E-04
    1107    (1,1107)              1.29120568E-03
    1108    (1,1108)              6.13144667E-05
    1109    (1,1109)              2.44154509E-04
    1110    (1,1110)              6.52873618E-04
    1111    (1,1111)              2.63055311E-04
    1112    (1,1112)              5.10351645E-04
    1113    (1,1113)              1.53219129E-03
    1114    (1,1114)              3.91858500E-03
    1115    (1,1115)              6.73633164E-04
    1116    (1,1116)              1.50723494E-02
    1117    (1,1117)              9.06509117E-04
    1118    (1,1118)              6.22261684E-04
    1119    (1,1119)              2.90282655E-03
    1120    (1,1120)              9.74774181E-03
    1121    (1,1121)              6.96739587E-04
    1122    (1,1122)              1.54929706E-03
    1123    (1,1123)              4.82690340E-04
    1124    (1,1124)              4.30723155E-04
    1125    (1,1125)              1.04354467E-03
    1126    (1,1126)              3.59598056E-04
    1127    (1,1127)              1.37460390E-03
    1128    (1,1128)              1.62717192E-02
    1129    (1,1129)              2.34391623E-03
    1130    (1,1130)              1.05532856E-03
    1131    (1,1131)              1.13257762E-03
    1132    (1,1132)              2.53717322E-04
    1133    (1,1133)              1.22909761E-03
    1134    (1,1134)              3.61494484E-03
    1135    (1,1135)              1.20156078E-03
    1136    (1,1136)              1.03725381E-03
    1137    (1,1137)              2.43159918E-03
    1138    (1,1138)              1.67413750E-03
    1139    (1,1139)              9.89713621E-04
    1140    (1,1140)              5.93453644E-04
    1141    (1,1141)              1.16247637E-03
    1142    (1,1142)              2.75523259E-03
    1143    (1,1143)              4.24874881E-04
    1144    (1,1144)              4.70571944E-04
    1145    (1,1145)              4.25281961E-04
    1146    (1,1146)              1.23218518E-02
    1147    (1,1147)              3.51850924E-03
    1148    (1,1148)              2.05165361E-03
    1149    (1,1149)              9.44558109E-04
    1150    (1,1150)              2.05281388E-03
    1151    (1,1151)              4.24346918E-04
    1152    (1,1152)              3.88043711E-04
    1153    (1,1153)              6.78593812E-04
    1154    (1,1154)              9.41733767E-04
    1155    (1,1155)              4.24776246E-04
    1156    (1,1156)              3.88080761E-04
    1157    (1,1157)              3.47341397E-03
    1158    (1,1158)              4.70836251E-04
    1159    (1,1159)              4.25182371E-04
    1160    (1,1160)              4.12643764E-03
    1161    (1,1161)              1.62099686E-03
    1162    (1,1162)              1.76057414E-03
    1163    (1,1163)              1.63307972E-03
    1164    (1,1164)              1.63165253E-03
    1165    (1,1165)              4.30451619E-04
    1166    (1,1166)              1.63875137E-03
    1167    (1,1167)              4.30394674E-04
    1168    (1,1168)              2.07866944E-03
    1169    (1,1169)              2.07983444E-03
    1170    (1,1170)              1.63840954E-03
    1171    (1,1171)              4.17018809E-03
    1172    (1,1172)              1.32621547E-03
    1173    (1,1173)              1.48933714E-03
    1174    (1,1174)              1.51060160E-03
    1175    (1,1175)              1.46188691E-03
    1176    (1,1176)              2.27321152E-03
    1177    (1,1177)              1.46261676E-03
    1178    (1,1178)              3.01203958E-03
    1179    (1,1179)              1.25459284E-03
    1180    (1,1180)              1.03438234E-03
    1181    (1,1181)              4.28391198E-04
    1182    (1,1182)              1.03357899E-03
    1183    (1,1183)              4.17098128E-03
    1184    (1,1184)              9.04483251E-04
    1185    (1,1185)              6.77801906E-03
    1186    (1,1186)              3.49213732E-03
    1187    (1,1187)              7.54997307E-04
    1188    (1,1188)              1.95410119E-03
    1189    (1,1189)              4.72952413E-04
    1190    (1,1190)              1.13493131E-03
    1191    (1,1191)              6.53596037E-04
    1192    (1,1192)              1.25850372E-03
    1193    (1,1193)              8.65764911E-04
    1194    (1,1194)              7.96289946E-04
    1195    (1,1195)              2.31238618E-03
    1196    (1,1196)              7.58309202E-04
    1197    (1,1197)              2.48195558E-03
    1198    (1,1198)              8.92763392E-04
    1199    (1,1199)              9.55601158E-04
    1200    (1,1200)              4.11023233E-03
    1201    (1,1201)              5.81930753E-04
    1202    (1,1202)              1.31187854E-03
    1203    (1,1203)              1.85821962E-03
    1204    (1,1204)              1.24300202E-03
    1205    (1,1205)              5.28270490E-04
    1206    (1,1206)              5.30796819E-04
    1207    (1,1207)              1.38642845E-03
    1208    (1,1208)              4.23547770E-04
    1209    (1,1209)              1.41635066E-03
    1210    (1,1210)              1.08667465E-03
    1211    (1,1211)              1.15954837E-03
    1212    (1,1212)              2.74354924E-03
    1213    (1,1213)              1.03425760E-03
    1214    (1,1214)              1.15987852E-03
    1215    (1,1215)              2.30412377E-03
    1216    (1,1216)              4.28326673E-04
    1217    (1,1217)              2.37041317E-03
    1218    (1,1218)              1.46247245E-03
    1219    (1,1219)              1.62054619E-03
    1220    (1,1220)              1.39859930E-03
    1221    (1,1221)              1.82297346E-03
    1222    (1,1222)              1.16140924E-03
    1223    (1,1223)              4.27927330E-04
    1224    (1,1224)              1.03351749E-03
    1225    (1,1225)              1.61234001E-03
    1226    (1,1226)              2.37310693E-03
    1227    (1,1227)              1.46165560E-03
    1228    (1,1228)              8.25298850E-04
    1229    (1,1229)              1.22282548E-03
    1230    (1,1230)              1.09149195E-03
    1231    (1,1231)              4.28187678E-04
    1232    (1,1232)              8.55924558E-04
    1233    (1,1233)              2.72608728E-03
    1234    (1,1234)              4.24456899E-04
    1235    (1,1235)              4.35066975E-04
    1236    (1,1236)              5.09501351E-03
    1237    (1,1237)              1.57132763E-03
    1238    (1,1238)              4.35446523E-04
    1239    (1,1239)              1.93122225E-03
    1240    (1,1240)              1.35348875E-03
    1241    (1,1241)              1.90240033E-03
    1242    (1,1242)              1.06899812E-03
    1243    (1,1243)              1.54935754E-03
    1244    (1,1244)              2.10213134E-03
    1245    (1,1245)              2.64926523E-03
    1246    (1,1246)              1.04328092E-03
    1247    (1,1247)              4.35493442E-04
    1248    (1,1248)              1.12599702E-03
    1249    (1,1249)              9.41188130E-04
    1250    (1,1250)              2.10331760E-03
    1251    (1,1251)              4.39931590E-04
    1252    (1,1252)              4.35951598E-04
    1253    (1,1253)              7.10418659E-04
    1254    (1,1254)              1.59938202E-03
    1255    (1,1255)              1.47343371E-03
    1256    (1,1256)              1.60333208E-03
    1257    (1,1257)              1.77219246E-03
    1258    (1,1258)              1.33792909E-03
    1259    (1,1259)              5.17448374E-04
    1260    (1,1260)              1.64566639E-03
    1261    (1,1261)              4.45826761E-04
    1262    (1,1262)              8.63990944E-04
    1263    (1,1263)              4.62056599E-04
    1264    (1,1264)              1.06502567E-03
    1265    (1,1265)              4.33309274E-03
    1266    (1,1266)              2.22731334E-03
    1267    (1,1267)              2.59341502E-03
    1268    (1,1268)              9.92108418E-04
    1269    (1,1269)              4.44753601E-04
    1270    (1,1270)              2.89758736E-03
    1271    (1,1271)              4.34500842E-03
    1272    (1,1272)              1.75935629E-03
    1273    (1,1273)              4.62107631E-04
    1274    (1,1274)              1.70213020E-03
    1275    (1,1275)              2.14558309E-03
    1276    (1,1276)              4.40674664E-04
    1277    (1,1277)              4.46987018E-03
    1278    (1,1278)              1.13168820E-03
    1279    (1,1279)              3.62560151E-04
    1280    (1,1280)              4.50298733E-03
    1281    (1,1281)              4.49952231E-04
    1282    (1,1282)              1.78433704E-03
    1283    (1,1283)              2.66622526E-03
    1284    (1,1284)              5.33938864E-04
    1285    (1,1285)              4.50541590E-05
    1286    (1,1286)              5.37490496E-04
    1287    (1,1287)              9.91104810E-05
    1288    (1,1288)              2.63891940E-04
    1289    (1,1289)              1.00872136E-03
    1290    (1,1290)              7.93134492E-04
    1291    (1,1291)              4.30826189E-04
    1292    (1,1292)              1.39084942E-03
    1293    (1,1293)              1.78496179E-03
    1294    (1,1294)              4.30831184E-04
    1295    (1,1295)              2.17588434E-04
    1296    (1,1296)              1.39173379E-03
    1297    (1,1297)              2.35606787E-03
    1298    (1,1298)              1.01055759E-03
    1299    (1,1299)              7.25892578E-04
    1300    (1,1300)              3.64301844E-03
    1301    (1,1301)              7.27401197E-04
    1302    (1,1302)              9.98548213E-04
    1303    (1,1303)              1.05030828E-03
    1304    (1,1304)              1.66022462E-03
    1305    (1,1305)              2.31193838E-03
    1306    (1,1306)              7.94564571E-04
    1307    (1,1307)              2.12643899E-03
    1308    (1,1308)              2.60668722E-03
    1309    (1,1309)              3.61110694E-03
    1310    (1,1310)              1.67418634E-03
    1311    (1,1311)              2.12865065E-03
    1312    (1,1312)              4.41358353E-04
    1313    (1,1313)              2.64127532E-04
    1314    (1,1314)              9.91436469E-05
    1315    (1,1315)              2.30022103E-03
    1316    (1,1316)              4.50460890E-05
    1317    (1,1317)              2.00625211E-03
    1318    (1,1318)              1.36903592E-03
    1319    (1,1319)              4.40539234E-04
    1320    (1,1320)              9.94289577E-04
    1321    (1,1321)              4.50489962E-04
    1322    (1,1322)              5.38000907E-04
    1323    (1,1323)              1.49406747E-03
    1324    (1,1324)              5.35044183E-04
    1325    (1,1325)              2.17746962E-04
    1326    (1,1326)              1.78033134E-03
    1327    (1,1327)              9.97738981E-04
    1328    (1,1328)              2.66106261E-02
    1329    (1,1329)              8.82354698E-04
    1330    (1,1330)              4.04514723E-03
    1331    (1,1331)              4.16706556E-04
    1332    (1,1332)              4.04150538E-03
    1333    (1,1333)              1.54992781E-03
    1334    (1,1334)              4.17057407E-04
    1335    (1,1335)              3.09023603E-04
    1336    (1,1336)              7.19344166E-04
    1337    (1,1337)              6.39419198E-04
    1338    (1,1338)              3.64074509E-04
    1339    (1,1339)              1.12752557E-03
    1340    (1,1340)              2.01282004E-03
    1341    (1,1341)              3.23387966E-04
    1342    (1,1342)              4.16485871E-04
    1343    (1,1343)              3.66042566E-04
    1344    (1,1344)              1.61531103E-03
    1345    (1,1345)              6.95821251E-04
    1346    (1,1346)              3.01875077E-04
    1347    (1,1347)              2.01184183E-03
    1348    (1,1348)              3.85327981E-04
    1349    (1,1349)              4.16827070E-04
    1350    (1,1350)              6.81297248E-04
    1351    (1,1351)              6.65447331E-04
    1352    (1,1352)              4.21727730E-03
    1353    (1,1353)              5.40537886E-04
    1354    (1,1354)              9.43396228E-04
    1355    (1,1355)              1.00376203E-03
    1356    (1,1356)              5.54197616E-04
    1357    (1,1357)              6.41024426E-04
    1358    (1,1358)              3.44360939E-03
    1359    (1,1359)              6.41288295E-04
    1360    (1,1360)              1.67763655E-03
    1361    (1,1361)              4.90944434E-03
    1362    (1,1362)              7.14706524E-04
    1363    (1,1363)              7.77887900E-04
    1364    (1,1364)              6.39185169E-04
    1365    (1,1365)              7.12294862E-04
    1366    (1,1366)              9.19432834E-04
    1367    (1,1367)              1.35176111E-03
    1368    (1,1368)              1.21344652E-03
    1369    (1,1369)              1.10620423E-03
    1370    (1,1370)              9.53774465E-04
    1371    (1,1371)              1.22497386E-03
    1372    (1,1372)              1.48447602E-03
    1373    (1,1373)              4.07549262E-03
    1374    (1,1374)              1.07445110E-03
    1375    (1,1375)              1.22687568E-03
    1376    (1,1376)              3.15869334E-03
    1377    (1,1377)              1.09959181E-03
    1378    (1,1378)              1.28236034E-03
    1379    (1,1379)              7.09112473E-04
    1380    (1,1380)              1.01338544E-03
    1381    (1,1381)              6.35885219E-04
    1382    (1,1382)              6.01040212E-04
    1383    (1,1383)              8.97601380E-04
    1384    (1,1384)              7.19289484E-04
    1385    (1,1385)              1.73640990E-03
    1386    (1,1386)              7.73521871E-04
    1387    (1,1387)              7.94252875E-04
    1388    (1,1388)              3.84459033E-04
    1389    (1,1389)              4.11759681E-04
    1390    (1,1390)              4.94419553E-04
    1391    (1,1391)              7.77903600E-04
    1392    (1,1392)              1.50670237E-03
    1393    (1,1393)              3.79984793E-04
    1394    (1,1394)              1.26833200E-03
    1395    (1,1395)              1.56628154E-03
    1396    (1,1396)              1.46098433E-03
    1397    (1,1397)              1.99926642E-03
    1398    (1,1398)              1.68111350E-03
    1399    (1,1399)              5.81266575E-04
    1400    (1,1400)              2.31990220E-03
    1401    (1,1401)              1.16405932E-03
    1402    (1,1402)              6.35590587E-04
    1403    (1,1403)              8.06633872E-04
    1404    (1,1404)              1.01560970E-03
    1405    (1,1405)              3.19298689E-03
    1406    (1,1406)              2.78777380E-03
    1407    (1,1407)              4.14380120E-03
    1408    (1,1408)              3.28735048E-03
    1409    (1,1409)              3.78603922E-04
    1410    (1,1410)              6.34750349E-04
    1411    (1,1411)              4.32284628E-04
    1412    (1,1412)              2.66090088E-03
    1413    (1,1413)              8.28108777E-04
    1414    (1,1414)              3.64220151E-03
    1415    (1,1415)              5.39220530E-03
    1416    (1,1416)              8.28398188E-04
    1417    (1,1417)              5.95549857E-04
    1418    (1,1418)              5.96069952E-04
    1419    (1,1419)              7.78093156E-03
    1420    (1,1420)              7.05084709E-04
    1421    (1,1421)              1.80548998E-03
    1422    (1,1422)              1.04192120E-03
    1423    (1,1423)              6.69388802E-04
    1424    (1,1424)              1.18620499E-03
    1425    (1,1425)              1.17521911E-03
    1426    (1,1426)              2.37425120E-03
    1427    (1,1427)              1.98272386E-03
    1428    (1,1428)              1.61956073E-03
    1429    (1,1429)              1.30584034E-03
    1430    (1,1430)              1.47847403E-03
    1431    (1,1431)              1.19562809E-03
    1432    (1,1432)              3.98849741E-04
    1433    (1,1433)              2.74899331E-03
    1434    (1,1434)              1.15313625E-03
    1435    (1,1435)              2.04490257E-03
    1436    (1,1436)              7.56185375E-04
    1437    (1,1437)              6.40911870E-04
    1438    (1,1438)              1.11339002E-03
    1439    (1,1439)              4.41696065E-04
    1440    (1,1440)              1.74891272E-04
    1441    (1,1441)              6.28056662E-05
    1442    (1,1442)              1.31627568E-03
    1443    (1,1443)              7.60287553E-04
    1444    (1,1444)              1.13964854E-03
    1445    (1,1445)              1.07669056E-03
    1446    (1,1446)              6.41197174E-04
    1447    (1,1447)              5.27766836E-04
    1448    (1,1448)              8.77207044E-04
    1449    (1,1449)              1.30424433E-03
    1450    (1,1450)              2.39033970E-03
    1451    (1,1451)              1.91438329E-03
    1452    (1,1452)              1.94510848E-03
    1453    (1,1453)              1.32418415E-03
    1454    (1,1454)              1.48837458E-03
[...]
   24906    (1,24906)             0.13414457    
   24907    (1,24907)             0.12238670    
   24908    (1,24908)             0.13814530    
   24909    (1,24909)             0.10151337    
   24910    (1,24910)             7.17705847E-02
   24911    (1,24911)             0.10179622    
   24912    (1,24912)             9.73209807E-02
   24913    (1,24913)             0.13158971    
   24914    (1,24914)             0.13648344    
   24915    (1,24915)             0.10493132    
   24916    (1,24916)             0.16709581    
   24917    (1,24917)             9.52179550E-02
   24918    (1,24918)             9.93489058E-02
   24919    (1,24919)             0.16791206    
   24920    (1,24920)             0.16449760    
   24921    (1,24921)             0.11977751    
   24922    (1,24922)             0.11750762    
   24923    (1,24923)             0.13973129    
   24924    (1,24924)             0.13654046    
   24925    (1,24925)             0.10998865    
   24926    (1,24926)             0.12788884    
   24927    (1,24927)             8.72376944E-02
   24928    (1,24928)             0.10958878    
   24929    (1,24929)             0.10611875    
   24930    (1,24930)             0.12411838    
   24931    (1,24931)             0.11818246    
   24932    (1,24932)             0.12497701    
   24933    (1,24933)             0.17303901    
   24934    (1,24934)             8.84085779E-02
   24935    (1,24935)             8.02774207E-02
   24936    (1,24936)             7.61532109E-02
   24937    (1,24937)             0.13519367    
   24938    (1,24938)             0.10092783    
   24939    (1,24939)             9.03292759E-02
   24940    (1,24940)             0.13504735    
   24941    (1,24941)             0.13314194    
   24942    (1,24942)             0.10412562    
   24943    (1,24943)             0.14086562    
   24944    (1,24944)             0.12495875    
   24945    (1,24945)             0.12889595    
   24946    (1,24946)             0.10541066    
   24947    (1,24947)             0.14898134    
   24948    (1,24948)             8.61073035E-02
   24949    (1,24949)             0.10497222    
   24950    (1,24950)             0.12197463    
   24951    (1,24951)             0.10458014    
   24952    (1,24952)             0.10590921    
   24953    (1,24953)             0.10270080    
   24954    (1,24954)             8.84586282E-02
   24955    (1,24955)             0.10497405    
   24956    (1,24956)             0.14450413    
   24957    (1,24957)             8.89934860E-02
   24958    (1,24958)             9.10998324E-02
   24959    (1,24959)             0.10740271    
   24960    (1,24960)             8.80034280E-02
   24961    (1,24961)             0.11553771    
   24962    (1,24962)             9.13585201E-02
   24963    (1,24963)             0.13841733    
   24964    (1,24964)             0.12367348    
   24965    (1,24965)             0.12467827    
   24966    (1,24966)             8.90810393E-02
   24967    (1,24967)             0.11338500    
   24968    (1,24968)             9.36284337E-02
   24969    (1,24969)             0.13090003    
   24970    (1,24970)             9.65357577E-02
   24971    (1,24971)             0.10800247    
   24972    (1,24972)             0.12765448    
   24973    (1,24973)             9.06678653E-02
   24974    (1,24974)             9.08483291E-02
   24975    (1,24975)             8.70806071E-02
   24976    (1,24976)             0.10169078    
   24977    (1,24977)             8.51991102E-02
   24978    (1,24978)             0.11976996    
   24979    (1,24979)             0.12032096    
   24980    (1,24980)             0.13078966    
   24981    (1,24981)             0.15297673    
   24982    (1,24982)             0.15179843    
   24983    (1,24983)             0.10730460    
   24984    (1,24984)             0.10932290    
   24985    (1,24985)             9.28926266E-02
   24986    (1,24986)             0.10361954    
   24987    (1,24987)             0.18874911    
   24988    (1,24988)             0.12010778    
   24989    (1,24989)             0.12872261    
   24990    (1,24990)             9.84110448E-02
   24991    (1,24991)             0.10585342    
   24992    (1,24992)             9.52494806E-02
   24993    (1,24993)             0.14279370    
   24994    (1,24994)             0.14266831    
   24995    (1,24995)             8.79187838E-02
   24996    (1,24996)             0.15937942    
   24997    (1,24997)             0.11084690    
   24998    (1,24998)             6.87231328E-02
   24999    (1,24999)             8.25836473E-02
   25000    (1,25000)             0.10459486    
   25001    (1,25001)             0.11172453    
   25002    (1,25002)             0.18591346    
   25003    (1,25003)             0.18436958    
   25004    (1,25004)             0.19045529    
   25005    (1,25005)             0.12785473    
   25006    (1,25006)             0.16124745    
   25007    (1,25007)             0.12477526    
   25008    (1,25008)             0.13210917    
   25009    (1,25009)             9.95097985E-02
   25010    (1,25010)             9.31295971E-02
   25011    (1,25011)             9.12079208E-02
   25012    (1,25012)             9.99701358E-02
   25013    (1,25013)             9.81336129E-02
   25014    (1,25014)             8.72549700E-02
   25015    (1,25015)             0.15195516    
   25016    (1,25016)             0.11348512    
   25017    (1,25017)             0.12885651    
   25018    (1,25018)             8.23436533E-02
   25019    (1,25019)             9.88949813E-02
   25020    (1,25020)             0.15309350    
   25021    (1,25021)             0.12966127    
   25022    (1,25022)             0.10370363    
   25023    (1,25023)             8.82981305E-02
   25024    (1,25024)             0.13896572    
   25025    (1,25025)             0.10327619    
   25026    (1,25026)             8.16466301E-02
   25027    (1,25027)             7.82904254E-02
   25028    (1,25028)             8.97213275E-02
   25029    (1,25029)             0.13593066    
   25030    (1,25030)             8.96600744E-02
   25031    (1,25031)             0.17600336    
   25032    (1,25032)             9.03898420E-02
   25033    (1,25033)             0.10383667    
   25034    (1,25034)             0.14328050    
   25035    (1,25035)             0.15288967    
   25036    (1,25036)             0.11715665    
   25037    (1,25037)             9.23287002E-02
   25038    (1,25038)             0.12484663    
   25039    (1,25039)             0.13021694    
   25040    (1,25040)             0.13546789    
   25041    (1,25041)             9.90055918E-02
   25042    (1,25042)             9.07934078E-02
   25043    (1,25043)             7.65036849E-02
   25044    (1,25044)             0.10472749    
   25045    (1,25045)             8.48844126E-02
   25046    (1,25046)             0.11212361    
   25047    (1,25047)             0.15835622    
   25048    (1,25048)             0.14190376    
   25049    (1,25049)             0.10703836    
   25050    (1,25050)             0.10617509    
   25051    (1,25051)             0.14375982    
   25052    (1,25052)             0.11135306    
   25053    (1,25053)             8.89234777E-02
   25054    (1,25054)             9.19406553E-02
   25055    (1,25055)             9.20824995E-02
   25056    (1,25056)             7.47067255E-02
   25057    (1,25057)             0.12766570    
   25058    (1,25058)             9.80666799E-02
   25059    (1,25059)             0.13543930    
   25060    (1,25060)             9.51870907E-02
   25061    (1,25061)             0.15867514    
   25062    (1,25062)             7.48151293E-02
   25063    (1,25063)             7.52093487E-02
   25064    (1,25064)             9.56850171E-02
   25065    (1,25065)             9.58052766E-02
   25066    (1,25066)             0.10316160    
   25067    (1,25067)             8.46137486E-02
   25068    (1,25068)             0.10036555    
   25069    (1,25069)             0.11292056    
   25070    (1,25070)             8.68024686E-02
   25071    (1,25071)             9.91364821E-02
   25072    (1,25072)             0.15311358    
   25073    (1,25073)             8.73472254E-02
   25074    (1,25074)             0.10412231    
   25075    (1,25075)             0.13641651    
   25076    (1,25076)             0.10975420    
   25077    (1,25077)             0.14613985    
   25078    (1,25078)             0.16780504    
   25079    (1,25079)             0.14336793    
   25080    (1,25080)             0.10590970    
   25081    (1,25081)             7.06843783E-02
   25082    (1,25082)             0.16558444    
   25083    (1,25083)             0.11696044    
   25084    (1,25084)             0.13565321    
   25085    (1,25085)             0.12340804    
   25086    (1,25086)             0.14629957    
   25087    (1,25087)             0.10062884    
   25088    (1,25088)             0.10832693    
   25089    (1,25089)             0.10573536    
   25090    (1,25090)             0.14265915    
   25091    (1,25091)             0.10893309    
   25092    (1,25092)             0.12185721    
   25093    (1,25093)             0.12847003    
   25094    (1,25094)             0.13166878    
   25095    (1,25095)             0.18593096    
   25096    (1,25096)             0.16360063    
   25097    (1,25097)             9.08470869E-02
   25098    (1,25098)             0.16172629    
   25099    (1,25099)             9.33277611E-02
   25100    (1,25100)             0.12862548    
   25101    (1,25101)             0.14406888    
   25102    (1,25102)             9.99284332E-02
   25103    (1,25103)             9.89261422E-02
   25104    (1,25104)             9.54191948E-02
   25105    (1,25105)             0.10722121    
   25106    (1,25106)             9.34072900E-02
   25107    (1,25107)             9.73959133E-02
   25108    (1,25108)             0.11401983    
   25109    (1,25109)             0.12947852    
   25110    (1,25110)             7.01365164E-02
   25111    (1,25111)             8.48541767E-02
   25112    (1,25112)             9.89941640E-02
   25113    (1,25113)             9.78994637E-02
   25114    (1,25114)             0.12903556    
   25115    (1,25115)             0.12121887    
   25116    (1,25116)             0.12584121    
   25117    (1,25117)             0.11803335    
   25118    (1,25118)             0.11486196    
   25119    (1,25119)             0.15952546    
   25120    (1,25120)             0.15757375    
   25121    (1,25121)             9.88889979E-02
   25122    (1,25122)             0.10241091    
   25123    (1,25123)             0.12046119    
   25124    (1,25124)             0.10121446    
   25125    (1,25125)             0.12924493    
   25126    (1,25126)             0.14869645    
   25127    (1,25127)             0.12556116    
   25128    (1,25128)             0.12970716    
   25129    (1,25129)             7.90477118E-02
   25130    (1,25130)             0.16278391    
   25131    (1,25131)             0.14479592    
   25132    (1,25132)             0.10377382    
   25133    (1,25133)             8.34966743E-02
   25134    (1,25134)             9.11174878E-02
   25135    (1,25135)             9.46577935E-02
   25136    (1,25136)             9.34431615E-02
   25137    (1,25137)             0.10877794    
   25138    (1,25138)             9.86042528E-02
   25139    (1,25139)             8.51135968E-02
   25140    (1,25140)             0.12335788    
   25141    (1,25141)             9.77793827E-02
   25142    (1,25142)             9.41251022E-02
   25143    (1,25143)             0.16675245    
   25144    (1,25144)             0.16020105    
   25145    (1,25145)             9.77310778E-02
   25146    (1,25146)             9.25319859E-02
   25147    (1,25147)             0.12707636    
   25148    (1,25148)             0.12361875    
   25149    (1,25149)             8.53684083E-02
   25150    (1,25150)             0.15085810    
   25151    (1,25151)             9.70606273E-02
   25152    (1,25152)             0.13638782    
   25153    (1,25153)             0.11717846    
   25154    (1,25154)             0.13301213    
   25155    (1,25155)             9.61429336E-02
   25156    (1,25156)             0.10307276    
   25157    (1,25157)             8.88614999E-02
   25158    (1,25158)             8.04503978E-02
   25159    (1,25159)             0.11948021    
   25160    (1,25160)             0.13133660    
   25161    (1,25161)             0.13447549    
   25162    (1,25162)             9.58222970E-02
   25163    (1,25163)             0.15680200    
   25164    (1,25164)             7.90882779E-02
   25165    (1,25165)             0.12168459    
   25166    (1,25166)             0.14851968    
   25167    (1,25167)             0.10104535    
   25168    (1,25168)             0.11902049    
   25169    (1,25169)             9.30937326E-02
   25170    (1,25170)             0.13475212    
   25171    (1,25171)             7.67557774E-02
   25172    (1,25172)             0.11653872    
   25173    (1,25173)             0.11083311    
   25174    (1,25174)             7.99560689E-02
   25175    (1,25175)             7.20087732E-02
   25176    (1,25176)             0.13720336    
   25177    (1,25177)             0.11835454    
   25178    (1,25178)             8.78960128E-02
   25179    (1,25179)             0.10897446    
   25180    (1,25180)             0.11162601    
   25181    (1,25181)             0.15246277    
   25182    (1,25182)             0.10541750    
   25183    (1,25183)             0.14568261    
   25184    (1,25184)             0.10761711    
   25185    (1,25185)             8.37030273E-02
   25186    (1,25186)             0.15159653    
   25187    (1,25187)             9.65698253E-02
   25188    (1,25188)             7.57003741E-02
   25189    (1,25189)             7.77425867E-02
   25190    (1,25190)             8.47467990E-02
   25191    (1,25191)             7.62987738E-02
   25192    (1,25192)             0.16462593    
   25193    (1,25193)             9.25968084E-02
   25194    (1,25194)             8.91517233E-02
   25195    (1,25195)             8.98015185E-02
   25196    (1,25196)             0.10243053    
   25197    (1,25197)             0.10616048    
   25198    (1,25198)             0.11154052    
   25199    (1,25199)             9.38656250E-02
   25200    (1,25200)             0.11217172    
   25201    (1,25201)             9.62118739E-02
   25202    (1,25202)             0.15477724    
   25203    (1,25203)             0.15039816    
   25204    (1,25204)             9.60750905E-02
   25205    (1,25205)             0.11286159    
   25206    (1,25206)             8.72339222E-02
   25207    (1,25207)             7.83061538E-02
   25208    (1,25208)             0.11014229    
   25209    (1,25209)             8.71707211E-02
   25210    (1,25210)             8.74503535E-02
   25211    (1,25211)             8.77335399E-02
   25212    (1,25212)             0.16540161    
   25213    (1,25213)             9.21474913E-02
   25214    (1,25214)             0.15313474    
   25215    (1,25215)             0.17429467    
   25216    (1,25216)             0.10130112    
   25217    (1,25217)             0.12703416    
   25218    (1,25218)             7.04510837E-02
   25219    (1,25219)             9.92562206E-02
   25220    (1,25220)             9.73405203E-02
   25221    (1,25221)             9.90418178E-02
   25222    (1,25222)             0.13694112    
   25223    (1,25223)             0.11790515    
   25224    (1,25224)             0.10514515    
   25225    (1,25225)             0.13386344    
   25226    (1,25226)             0.17273114    
   25227    (1,25227)             8.47354099E-02
   25228    (1,25228)             0.16076092    
   25229    (1,25229)             0.16246446    
   25230    (1,25230)             8.68923231E-02
   25231    (1,25231)             0.11149549    
   25232    (1,25232)             0.12087360    
   25233    (1,25233)             0.12183965    
   25234    (1,25234)             0.15740440    
   25235    (1,25235)             0.16378693    
   25236    (1,25236)             0.13722219    
   25237    (1,25237)             9.82172861E-02
   25238    (1,25238)             0.10305657    
   25239    (1,25239)             0.12578959    
   25240    (1,25240)             6.42450139E-02
   25241    (1,25241)             6.65485192E-02
   25242    (1,25242)             6.22029364E-02
   25243    (1,25243)             8.54903354E-02
   25244    (1,25244)             0.15724637    
   25245    (1,25245)             6.23684946E-02
   25246    (1,25246)             9.56692120E-02
   25247    (1,25247)             8.48899823E-02
   25248    (1,25248)             0.15674847    
   25249    (1,25249)             0.13040958    
   25250    (1,25250)             9.66702942E-02
   25251    (1,25251)             0.11925443    
   25252    (1,25252)             0.12989522    
   25253    (1,25253)             0.12744579    
   25254    (1,25254)             0.12030357    
   25255    (1,25255)             0.15572302    
   25256    (1,25256)             0.11009474    
   25257    (1,25257)             0.11917206    
   25258    (1,25258)             0.13743589    
   25259    (1,25259)             0.12839867    
   25260    (1,25260)             9.96721728E-02
   25261    (1,25261)             0.16356762    
   25262    (1,25262)             7.52768641E-02
 -----------------------------------------------




 HEAD WILL BE SAVED ON UNIT 1018 AT END OF TIME STEP    1, STRESS PERIOD    1


  VOLUME BUDGET FOR ENTIRE MODEL AT END OF TIME STEP    1, STRESS PERIOD   1
  ---------------------------------------------------------------------------------------------------

     CUMULATIVE VOLUME      L**3       RATES FOR THIS TIME STEP      L**3/T          PACKAGE NAME    
     ------------------                 ------------------------                     ----------------

           IN:                                      IN:
           ---                                      ---
                 WEL =           0.0000                   WEL =           0.0000     WELL_PACKAGE                     
                 RCH =         345.0611                   RCH =         345.0611     RCH                              
                 EVT =           0.0000                   EVT =           0.0000     EVT                              
                 CHD =           7.9901                   CHD =           7.9901     CHD                              

            TOTAL IN =         353.0513              TOTAL IN =         353.0513

          OUT:                                     OUT:
          ----                                     ----
                 WEL =          74.8080                   WEL =          74.8080     WELL_PACKAGE                     
                 RCH =           0.0000                   RCH =           0.0000     RCH                              
                 EVT =           5.1563                   EVT =           5.1563     EVT                              
                 CHD =         273.0922                   CHD =         273.0922     CHD                              

           TOTAL OUT =         353.0566             TOTAL OUT =         353.0566

            IN - OUT =      -5.2984E-03              IN - OUT =      -5.2984E-03

 PERCENT DISCREPANCY =          -0.00     PERCENT DISCREPANCY =          -0.00




         TIME SUMMARY AT END OF TIME STEP    1 IN STRESS PERIOD    1
                    SECONDS     MINUTES      HOURS       DAYS        YEARS
                    -----------------------------------------------------------
   TIME STEP LENGTH  1.0000     1.66667E-02 2.77778E-04 1.15741E-05 3.16881E-08
 STRESS PERIOD TIME  1.0000     1.66667E-02 2.77778E-04 1.15741E-05 3.16881E-08
         TOTAL TIME  1.0000     1.66667E-02 2.77778E-04 1.15741E-05 3.16881E-08


end timestep

