                                   MODFLOW 6
                U.S. GEOLOGICAL SURVEY MODULAR HYDROLOGIC MODEL
                          GROUNDWATER FLOW MODEL (GWF)
                            VERSION 6.6.0 12/20/2024

   MODFLOW 6 compiled Dec 31 2024 17:10:16 with Intel(R) Fortran Intel(R) 64
   Compiler Classic for applications running on Intel(R) 64, Version 2021.7.0
                             Build 20220726_000000

This software has been approved for release by the U.S. Geological 
Survey (USGS). Although the software has been subjected to rigorous 
review, the USGS reserves the right to update the software as needed 
pursuant to further analysis and review. No warranty, expressed or 
implied, is made by the USGS or the U.S. Government as to the 
functionality of the software and related material nor shall the 
fact of release constitute any such warranty. Furthermore, the 
software is released on condition that neither the USGS nor the U.S. 
Government shall be held liable for any damages resulting from its 
authorized or unauthorized use. Also refer to the USGS Water 
Resources Software User Rights Notice for complete use, copyright, 
and distribution information.


As a work of the United States Government, this USGS product is 
in the public domain within the United States. You can copy, 
modify, distribute, and perform the work, even for commercial 
purposes, all without asking permission. Additionally, USGS 
waives copyright and related rights in the work worldwide 
through CC0 1.0 Universal Public Domain Dedication 
(https://creativecommons.org/publicdomain/zero/1.0/).

The following GNU Lesser General Public License (LGPL) libraries
are used in this USGS product:

    SPARSKIT version 2.0
      ilut, luson, and qsplit 
      (https://www-users.cse.umn.edu/~saad/software/SPARSKIT/)

    RCM - Reverse Cuthill McKee Ordering
      (https://people.math.sc.edu/Burkardt/f_src/rcm/rcm.html)

    BLAS - Basic Linear Algebra Subprograms Level 1
      (https://people.math.sc.edu/Burkardt/f_src/blas1_d/blas1_d.html)

    SPARSEKIT - Sparse Matrix Utility Package
      amux, dperm, dvperm, rperm, and cperm
      (https://people.sc.fsu.edu/~jburkardt/f77_src/sparsekit/sparsekit.html)

The following BSD-3 License libraries are used in this USGS product:

    Modern Fortran DAG Library
      Copyright (c) 2018, Jacob Williams
      All rights reserved.
      (https://github.com/jacobwilliams/daglib)

MODFLOW 6 compiler options: /O2 /heap-arrays:0 /fpe:0 /traceback /nologo /fpp
/c /module:win64\mod_mf6\ /object:win64\obj_mf6\

System command used to initiate simulation:
mf6

MODFLOW was compiled using uniform precision.

Real Variables
  KIND: 8
  TINY (smallest non-zero value):    2.225074-308
  HUGE (largest value):    1.797693+308
  PRECISION: 15
  SIZE IN BITS: 64

Integer Variables
  KIND: 4
  HUGE (largest value): 2147483647
  SIZE IN BITS: 32

Long Integer Variables
  KIND: 8
  HUGE (largest value): 9223372036854775807
  SIZE IN BITS: 64

Logical Variables
  KIND: 4
  SIZE IN BITS: 32
 
 NAMEFILE OPTIONS:
    FLOWS WILL BE SAVED TO BUDGET FILE SPECIFIED IN OUTPUT CONTROL
 END NAMEFILE OPTIONS:

 DISV -- VERTEX GRID DISCRETIZATION PACKAGE, VERSION 1 : 12/23/2015 - INPUT READ FROM MEMPATH: __INPUT__/TRIANGLE_CASED/DISV                     


 Setting Discretization Options
 End Setting Discretization Options

 Setting Discretization Dimensions
    NLAY = 2
    NCPL = 32515
    NVERT = 17759
 End Setting Discretization Dimensions

 Setting Discretization Griddata
    TOP set from input file
    BOTM set from input file
 End Setting Discretization Griddata

 Discretization Vertex data loaded
 Discretization Cell2d data loaded

 NPF -- NODE PROPERTY FLOW PACKAGE, VERSION 1, 3/30/2015 INPUT READ FROM MEMPATH: __INPUT__/TRIANGLE_CASED/NPF                      


 IC -- Initial Conditions Package, Version 8, 3/28/2015 input read from mempath: __INPUT__/TRIANGLE_CASED/IC                       


 Setting NPF Options
    Cell-by-cell flow information will be saved to binary file whenever ICBCFL is not zero.
    Specific discharge will be calculated at cell centers and written to DATA-SPDIS in budget file when requested.
 End Setting NPF Options

 Setting NPF Griddata
    ICELLTYPE set from input file
    K set from input file
    K33 not provided.  Setting K33 = K.
    K22 not provided.  Setting K22 = K.
 End Setting NPF Griddata


 WEL   -- WEL PACKAGE, VERSION 8, 2/22/2014 INPUT READ FROM MEMPATH: __INPUT__/TRIANGLE_CASED/WELL_PACKAGE             

 PROCESSING WEL BASE OPTIONS
    FLOWS WILL BE SAVED TO BUDGET FILE SPECIFIED IN OUTPUT CONTROL
 END OF WEL BASE OPTIONS

 PROCESSING WEL OPTIONS
 END OF WEL OPTIONS

 PROCESSING WEL BASE DIMENSIONS
    MAXBOUND =   36579
 END OF WEL BASE DIMENSIONS

 RCH   -- RCH PACKAGE, VERSION 8, 2/22/2014 INPUT READ FROM MEMPATH: __INPUT__/TRIANGLE_CASED/RCH                      

 PROCESSING RCH BASE OPTIONS
    FLOWS WILL BE SAVED TO BUDGET FILE SPECIFIED IN OUTPUT CONTROL
    RCH FLOWS WILL BE PRINTED TO LISTING FILE.
 END OF RCH BASE OPTIONS

 PROCESSING RCH OPTIONS
    RECHARGE WILL BE APPLIED TO SPECIFIED CELL.
 END OF RCH OPTIONS

 PROCESSING RCH BASE DIMENSIONS
    MAXBOUND =   32515
 END OF RCH BASE DIMENSIONS

 EVT   -- EVT PACKAGE, VERSION 8, 2/22/2014 INPUT READ FROM MEMPATH: __INPUT__/TRIANGLE_CASED/EVT                      

 PROCESSING EVT BASE OPTIONS
    FLOWS WILL BE SAVED TO BUDGET FILE SPECIFIED IN OUTPUT CONTROL
 END OF EVT BASE OPTIONS

 PROCESSING EVT OPTIONS
 END OF EVT OPTIONS

 PROCESSING EVT BASE DIMENSIONS
    MAXBOUND =   28967
 END OF EVT BASE DIMENSIONS

 PROCESSING EVT DIMENSIONS
    NSEG = 1
 END OF EVT DIMENSIONS

 CHD   -- CHD PACKAGE, VERSION 8, 2/22/2014 INPUT READ FROM MEMPATH: __INPUT__/TRIANGLE_CASED/CHD                      

 PROCESSING CHD BASE OPTIONS
    FLOWS WILL BE SAVED TO BUDGET FILE SPECIFIED IN OUTPUT CONTROL
 END OF CHD BASE OPTIONS

 PROCESSING CHD BASE DIMENSIONS
    MAXBOUND =    3562
 END OF CHD BASE DIMENSIONS
    STRT set from input file
    BINARY GRID INFORMATION WILL BE WRITTEN TO:
      UNIT NUMBER: 1016
      FILE NAME: triangle_caseD.disv.grb

 OPENED triangle_caseD.disv.grb
 FILE TYPE:DATA(BINARY)   UNIT 1016   STATUS:REPLACE             
 FORMAT:UNFORMATTED            ACCESS:STREAM              
 ACTION:READWRITE           

      THE LAST TIME STEP WILL BE PRINTED
      THE LAST TIME STEP WILL BE PRINTED
 # File generated by Flopy version 3.9.1 on 02/12/2026 at 09:25:15.

 PROCESSING OC OPTIONS

    BUDGET INFORMATION WILL BE WRITTEN TO:
      UNIT NUMBER: 1017
      FILE NAME: triangle_caseD.cbc

 OPENED triangle_caseD.cbc
 FILE TYPE:DATA(BINARY)   UNIT 1017   STATUS:REPLACE             
 FORMAT:UNFORMATTED            ACCESS:STREAM              
 ACTION:READWRITE           

    HEAD INFORMATION WILL BE WRITTEN TO:
      UNIT NUMBER: 1018
      FILE NAME: triangle_caseD.hds

 OPENED triangle_caseD.hds
 FILE TYPE:DATA(BINARY)   UNIT 1018   STATUS:REPLACE             
 FORMAT:UNFORMATTED            ACCESS:STREAM              
 ACTION:READWRITE           

 END OF OC OPTIONS

start timestep kper="1" kstp="1" mode="normal"


 BEGIN READING OUTPUT CONTROL FOR STRESS PERIOD 1
      THE LAST TIME STEP WILL BE SAVED
      THE LAST TIME STEP WILL BE SAVED
      THE LAST TIME STEP WILL BE PRINTED

 END READING OUTPUT CONTROL FOR STRESS PERIOD 1
 UBDSV1 SAVING     FLOW-JA-FACE ON UNIT   1017 AT TIME STEP      1, STRESS PERIOD      1
 UBDSV06 SAVING       DATA-SPDIS IN MODEL TRIANGLE_CASED   PACKAGE NPF             CONNECTED TO MODEL TRIANGLE_CASED   PACKAGE NPF              ON UNIT   1017 AT TIME STEP      1, STRESS PERIOD      1
 UBDSV06 SAVING              WEL IN MODEL TRIANGLE_CASED   PACKAGE TRIANGLE_CASED  CONNECTED TO MODEL TRIANGLE_CASED   PACKAGE WELL_PACKAGE     ON UNIT   1017 AT TIME STEP      1, STRESS PERIOD      1
 UBDSV06 SAVING              RCH IN MODEL TRIANGLE_CASED   PACKAGE TRIANGLE_CASED  CONNECTED TO MODEL TRIANGLE_CASED   PACKAGE RCH              ON UNIT   1017 AT TIME STEP      1, STRESS PERIOD      1
 UBDSV06 SAVING              EVT IN MODEL TRIANGLE_CASED   PACKAGE TRIANGLE_CASED  CONNECTED TO MODEL TRIANGLE_CASED   PACKAGE EVT              ON UNIT   1017 AT TIME STEP      1, STRESS PERIOD      1
 UBDSV06 SAVING              CHD IN MODEL TRIANGLE_CASED   PACKAGE TRIANGLE_CASED  CONNECTED TO MODEL TRIANGLE_CASED   PACKAGE CHD              ON UNIT   1017 AT TIME STEP      1, STRESS PERIOD      1

 RCH PACKAGE (RCH) FLOW RATES   PERIOD      1   STEP        1
 -----------------------------------------------
   NUMBER   CELLID                    RATE      
 -----------------------------------------------
     1      (1,1)                 1.16840105E-04
     2      (1,2)                 1.27059476E-04
     3      (1,3)                 1.05502847E-06
     4      (1,4)                 1.16540490E-04
     5      (1,5)                 1.08383527E-06
     6      (1,6)                 1.57880853E-06
     7      (1,7)                 3.35450979E-05
     8      (1,8)                 3.57124057E-04
     9      (1,9)                 1.40828472E-07
     10     (1,10)                2.63101375E-06
     11     (1,11)                1.08452487E-06
     12     (1,12)                2.07123950E-06
     13     (1,13)                1.26846001E-07
     14     (1,14)                1.21978580E-07
     15     (1,15)                3.09676158E-06
     16     (1,16)                4.38530311E-07
     17     (1,17)                1.36068987E-07
     18     (1,18)                1.67902781E-06
     19     (1,19)                2.08502405E-04
     20     (1,20)                1.69048277E-04
     21     (1,21)                1.67393306E-05
     22     (1,22)                3.37921220E-06
     23     (1,23)                6.34100524E-07
     24     (1,24)                2.13968699E-06
     25     (1,25)                2.05443581E-04
     26     (1,26)                1.03680043E-04
     27     (1,27)                1.45606790E-07
     28     (1,28)                2.44989097E-07
     29     (1,29)                1.95408516E-06
     30     (1,30)                4.72182184E-07
     31     (1,31)                2.13623162E-06
     32     (1,32)                2.19073328E-06
     33     (1,33)                2.87201973E-07
     34     (1,34)                1.31068538E-07
     35     (1,35)                3.19867092E-06
     36     (1,36)                1.35827317E-07
     37     (1,37)                1.31457707E-07
     38     (1,38)                1.36497447E-03
     39     (1,39)                1.42927324E-04
     40     (1,40)                2.47524605E-07
     41     (1,41)                2.45061096E-07
     42     (1,42)                1.05427513E-06
     43     (1,43)                1.05398284E-06
     44     (1,44)                1.08488500E-06
     45     (1,45)                1.31474247E-07
     46     (1,46)                1.36193542E-07
     47     (1,47)                1.57852751E-06
     48     (1,48)                1.31261253E-07
     49     (1,49)                1.52452545E-04
     50     (1,50)                1.08554233E-06
     51     (1,51)                1.67812597E-04
     52     (1,52)                1.03242581E-04
     53     (1,53)                1.83879610E-06
     54     (1,54)                2.07084375E-06
     55     (1,55)                2.94299638E-07
     56     (1,56)                2.87273764E-07
     57     (1,57)                1.24942959E-06
     58     (1,58)                1.26834100E-07
     59     (1,59)                1.35763110E-07
     60     (1,60)                1.03248796E-04
     61     (1,61)                3.01668475E-07
     62     (1,62)                3.16820178E-07
     63     (1,63)                1.08796991E-06
     64     (1,64)                4.66892831E-07
     65     (1,65)                2.43506160E-07
     66     (1,66)                1.12124838E-06
     67     (1,67)                4.66862728E-07
     68     (1,68)                1.62705429E-06
     69     (1,69)                2.12697350E-06
     70     (1,70)                3.12776800E-07
     71     (1,71)                1.35831669E-07
     72     (1,72)                1.08860748E-06
     73     (1,73)                1.34369212E-06
     74     (1,74)                2.43473749E-07
     75     (1,75)                1.35897498E-07
     76     (1,76)                2.23465687E-06
     77     (1,77)                1.35822526E-07
     78     (1,78)                3.18497228E-06
     79     (1,79)                1.36166590E-07
     80     (1,80)                1.12032132E-06
     81     (1,81)                1.83898795E-06
     82     (1,82)                6.89140298E-05
     83     (1,83)                3.16200094E-07
     84     (1,84)                0.0000000     
     85     (1,85)                1.85140184E-04
     86     (1,86)                1.62990752E-04
     87     (1,87)                6.22418978E-06
     88     (1,88)                1.04762580E-04
     89     (1,89)                4.03809294E-06
     90     (1,90)                4.30997830E-07
     91     (1,91)                8.63247786E-05
     92     (1,92)                1.04626301E-05
     93     (1,93)                1.26442667E-07
     94     (1,94)                1.91421018E-07
     95     (1,95)                1.81881961E-06
     96     (1,96)                7.87726649E-06
     97     (1,97)                2.96034237E-07
     98     (1,98)                2.36227109E-06
     99     (1,99)                3.94473071E-06
    100     (1,100)               3.47959563E-05
    101     (1,101)               9.60561202E-04
    102     (1,102)               1.69418291E-04
    103     (1,103)               1.08302231E-04
    104     (1,104)               1.01083103E-06
    105     (1,105)               1.72239980E-04
    106     (1,106)               2.25677709E-04
    107     (1,107)               0.0000000     
    108     (1,108)               5.15386600E-05
    109     (1,109)               6.05734927E-04
    110     (1,110)               1.72587742E-04
    111     (1,111)               5.55562083E-06
    112     (1,112)               3.03740342E-06
    113     (1,113)               1.01188030E-04
    114     (1,114)               9.04993413E-05
    115     (1,115)               4.90949362E-06
    116     (1,116)               1.34390600E-06
    117     (1,117)               1.59923643E-04
    118     (1,118)               2.36272446E-06
    119     (1,119)               1.10266001E-04
    120     (1,120)               3.03819995E-07
    121     (1,121)               2.49316682E-04
    122     (1,122)               4.48617219E-06
    123     (1,123)               2.44258348E-03
    124     (1,124)               3.38651995E-05
    125     (1,125)               2.52078270E-07
    126     (1,126)               2.32164740E-06
    127     (1,127)               1.14458975E-06
    128     (1,128)               1.70691421E-06
    129     (1,129)               1.43019721E-07
    130     (1,130)               1.45727446E-07
    131     (1,131)               4.77018063E-07
    132     (1,132)               1.42952848E-07
    133     (1,133)               1.38657034E-06
    134     (1,134)               1.41855136E-06
    135     (1,135)               1.40456842E-07
    136     (1,136)               2.61651447E-07
    137     (1,137)               3.37920407E-06
    138     (1,138)               1.41935426E-06
    139     (1,139)               1.40289893E-07
    140     (1,140)               3.23781667E-07
    141     (1,141)               1.15765594E-06
    142     (1,142)               1.45718451E-07
    143     (1,143)               6.38473724E-07
    144     (1,144)               2.05812574E-04
    145     (1,145)               1.48402801E-07
    146     (1,146)               1.17910561E-06
    147     (1,147)               2.22691073E-06
    148     (1,148)               1.17884482E-06
    149     (1,149)               1.42949804E-07
    150     (1,150)               2.56984778E-07
    151     (1,151)               2.22619547E-06
    152     (1,152)               1.42975242E-07
    153     (1,153)               1.14448427E-06
    154     (1,154)               2.01919750E-06
    155     (1,155)               1.42939173E-07
    156     (1,156)               3.48968273E-07
    157     (1,157)               1.80940160E-06
    158     (1,158)               2.82827101E-06
    159     (1,159)               3.09876700E-07
    160     (1,160)               3.30024308E-07
    161     (1,161)               1.98724006E-06
    162     (1,162)               1.48409853E-07
    163     (1,163)               1.37716003E-07
    164     (1,164)               1.14440845E-06
    165     (1,165)               3.33834336E-06
    166     (1,166)               1.40349580E-07
    167     (1,167)               1.42854826E-07
    168     (1,168)               1.22158588E-07
    169     (1,169)               1.99972246E-04
    170     (1,170)               3.29930040E-07
    171     (1,171)               1.02962442E-04
    172     (1,172)               9.03807624E-05
    173     (1,173)               2.04067520E-05
    174     (1,174)               3.12562630E-07
    175     (1,175)               1.35751256E-07
    176     (1,176)               3.27744717E-06
    177     (1,177)               1.37617842E-06
    178     (1,178)               1.08846867E-06
    179     (1,179)               1.71554758E-04
    180     (1,180)               0.23727886    
    181     (1,181)               6.23307931E-06
    182     (1,182)               1.75472383E-04
    183     (1,183)               1.35847088E-07
    184     (1,184)               6.62270869E-07
    185     (1,185)               1.62717363E-06
    186     (1,186)               2.76104875E-06
    187     (1,187)               2.07383542E-06
    188     (1,188)               1.93346934E-04
    189     (1,189)               2.12855631E-06
    190     (1,190)               3.30891069E-07
    191     (1,191)               1.92565968E-06
    192     (1,192)               1.40868762E-07
    193     (1,193)               3.12610811E-07
    194     (1,194)               1.08851807E-06
    195     (1,195)               1.40874767E-07
    196     (1,196)               1.08775010E-06
    197     (1,197)               1.12006621E-06
    198     (1,198)               1.11993289E-06
    199     (1,199)               3.30950363E-07
    200     (1,200)               1.43497418E-07
    201     (1,201)               1.14152450E-06
    202     (1,202)               2.48350907E-07
    203     (1,203)               1.29039240E-07
    204     (1,204)               2.10893514E-06
    205     (1,205)               1.35737678E-07
    206     (1,206)               1.40909375E-07
    207     (1,207)               1.35817642E-07
    208     (1,208)               3.18589643E-06
    209     (1,209)               1.40965755E-07
    210     (1,210)               1.34249463E-07
    211     (1,211)               1.14087098E-06
    212     (1,212)               1.43547528E-07
    213     (1,213)               1.36685433E-06
    214     (1,214)               1.34101774E-07
    215     (1,215)               1.29061204E-07
    216     (1,216)               1.95778687E-06
    217     (1,217)               3.11268428E-07
    218     (1,218)               1.10747414E-06
    219     (1,219)               1.28852361E-04
    220     (1,220)               3.23153028E-07
    221     (1,221)               1.95867173E-06
    222     (1,222)               6.45667998E-05
    223     (1,223)               1.10766822E-06
    224     (1,224)               4.76720308E-07
    225     (1,225)               2.57790786E-07
    226     (1,226)               3.33248449E-06
    227     (1,227)               1.38314642E-07
    228     (1,228)               1.39909735E-06
    229     (1,229)               3.33299614E-06
    230     (1,230)               4.64852154E-07
    231     (1,231)               1.39927620E-06
    232     (1,232)               1.43521807E-07
    233     (1,233)               1.10825859E-06
    234     (1,234)               3.24025966E-06
    235     (1,235)               1.43585061E-07
    236     (1,236)               3.33297167E-06
    237     (1,237)               2.19186461E-07
    238     (1,238)               2.16215285E-06
    239     (1,239)               2.90053979E-05
    240     (1,240)               1.14134815E-06
    241     (1,241)               1.43518398E-07
    242     (1,242)               1.10811671E-06
    243     (1,243)               1.36737946E-06
    244     (1,244)               3.37360475E-07
    245     (1,245)               1.38380467E-07
    246     (1,246)               2.20696831E-06
    247     (1,247)               1.38336083E-07
    248     (1,248)               1.39889279E-06
    249     (1,249)               1.38312555E-07
    250     (1,250)               1.34212898E-07
    251     (1,251)               3.11355166E-07
    252     (1,252)               2.60319978E-02
    253     (1,253)               4.56733282E-07
    254     (1,254)               1.04494519E-03
    255     (1,255)               1.12321867E-06
    256     (1,256)               1.41212164E-07
    257     (1,257)               2.07880502E-06
    258     (1,258)               1.36151769E-07
    259     (1,259)               1.36130196E-07
    260     (1,260)               3.28871318E-06
    261     (1,261)               3.13291104E-07
    262     (1,262)               1.34814100E-06
    263     (1,263)               3.29007843E-06
    264     (1,264)               1.36181642E-07
    265     (1,265)               1.37894961E-06
    266     (1,266)               2.70858923E-07
    267     (1,267)               2.44099347E-07
    268     (1,268)               1.37912747E-06
    269     (1,269)               1.36364442E-07
    270     (1,270)               1.12387288E-06
    271     (1,271)               3.19479992E-06
    272     (1,272)               1.36191337E-07
    273     (1,273)               1.09069353E-06
    274     (1,274)               3.13104919E-07
    275     (1,275)               3.19496957E-06
    276     (1,276)               1.35832538E-07
    277     (1,277)               1.41116807E-07
    278     (1,278)               2.17405072E-06
    279     (1,279)               1.36105358E-07
    280     (1,280)               2.13470501E-06
    281     (1,281)               1.12331222E-06
    282     (1,282)               1.89949161E-06
    283     (1,283)               3.31551529E-07
    284     (1,284)               2.17421984E-06
    285     (1,285)               1.89884150E-06
    286     (1,286)               1.41172574E-07
    287     (1,287)               3.13224494E-07
    288     (1,288)               2.13499305E-06
    289     (1,289)               1.36054507E-07
    290     (1,290)               2.13443549E-06
    291     (1,291)               1.36136011E-07
    292     (1,292)               1.29667194E-07
    293     (1,293)               2.44190475E-07
    294     (1,294)               1.09167384E-06
    295     (1,295)               1.16206894E-06
    296     (1,296)               3.28000143E-07
    297     (1,297)               3.38694230E-06
    298     (1,298)               1.41457897E-07
    299     (1,299)               1.35866961E-07
    300     (1,300)               2.39723806E-06
    301     (1,301)               3.22084858E-07
    302     (1,302)               2.25670501E-06
    303     (1,303)               1.16347029E-06
    304     (1,304)               1.50855522E-07
    305     (1,305)               1.64349264E-06
    306     (1,306)               1.19770213E-06
    307     (1,307)               2.42854895E-06
    308     (1,308)               1.46846946E-07
    309     (1,309)               1.21100387E-06
    310     (1,310)               1.45423560E-07
    311     (1,311)               4.90759538E-07
    312     (1,312)               3.58433863E-07
    313     (1,313)               2.59259717E-04
    314     (1,314)               2.10557773E-06
    315     (1,315)               1.70911557E-04
    316     (1,316)               1.86169543E-06
    317     (1,317)               2.07762459E-06
    318     (1,318)               1.17652489E-06
    319     (1,319)               4.67654465E-07
    320     (1,320)               1.09180686E-06
    321     (1,321)               1.12532748E-06
    322     (1,322)               1.37204860E-07
    323     (1,323)               1.89272661E-06
    324     (1,324)               3.96348577E-06
    325     (1,325)               1.37135615E-07
    326     (1,326)               3.13614502E-07
    327     (1,327)               1.21139414E-06
    328     (1,328)               1.17645398E-06
    329     (1,329)               4.94349514E-07
    330     (1,330)               2.33258855E-07
    331     (1,331)               1.21114749E-06
    332     (1,332)               1.42738280E-07
    333     (1,333)               1.17690412E-06
    334     (1,334)               1.37167134E-07
    335     (1,335)               3.32164881E-07
    336     (1,336)               1.19711863E-06
    337     (1,337)               1.49243694E-03
    338     (1,338)               1.34574229E-07
    339     (1,339)               1.35963288E-07
    340     (1,340)               1.46977971E-07
    341     (1,341)               4.94551278E-07
    342     (1,342)               4.32115169E-04
    343     (1,343)               1.03380350E-04
    344     (1,344)               6.58166929E-04
    345     (1,345)               1.18705662E-06
    346     (1,346)               3.55363418E-06
    347     (1,347)               2.06489338E-05
    348     (1,348)               2.25355999E-06
    349     (1,349)               1.29429044E-04
    350     (1,350)               3.90382098E-04
    351     (1,351)               3.35864638E-07
    352     (1,352)               2.41797481E-06
    353     (1,353)               2.30082882E-06
    354     (1,354)               1.22268783E-06
    355     (1,355)               2.76851791E-07
    356     (1,356)               1.48403946E-07
    357     (1,357)               3.45165706E-06
    358     (1,358)               1.54154764E-07
    359     (1,359)               3.18340212E-07
    360     (1,360)               1.46141042E-06
    361     (1,361)               1.19652489E-04
    362     (1,362)               1.44388956E-07
    363     (1,363)               5.56293573E-05
    364     (1,364)               3.41785049E-07
    365     (1,365)               2.20891633E-07
    366     (1,366)               1.14781423E-06
    367     (1,367)               7.76448028E-07
    368     (1,368)               1.66281514E-06
    369     (1,369)               1.49510691E-06
    370     (1,370)               1.46053073E-06
    371     (1,371)               1.54141584E-07
    372     (1,372)               1.39133402E-07
    373     (1,373)               2.30456552E-05
    374     (1,374)               1.49591239E-06
    375     (1,375)               8.69136985E-05
    376     (1,376)               2.67041209E-07
    377     (1,377)               1.84296592E-04
    378     (1,378)               1.45879014E-04
    379     (1,379)               3.25411159E-06
    380     (1,380)               9.46183231E-05
    381     (1,381)               5.81427759E-05
    382     (1,382)               3.07529096E-07
    383     (1,383)               9.27316643E-05
    384     (1,384)               1.02631312E-04
    385     (1,385)               1.10904587E-06
    386     (1,386)               1.14127287E-06
    387     (1,387)               2.35716331E-05
    388     (1,388)               1.65804718E-06
    389     (1,389)               1.85975022E-04
    390     (1,390)               1.00578723E-03
    391     (1,391)               1.36994010E-06
    392     (1,392)               1.40140587E-06
    393     (1,393)               3.10705559E-07
    394     (1,394)               2.34646323E-05
    395     (1,395)               2.16930198E-06
    396     (1,396)               1.40125415E-06
    397     (1,397)               1.38292476E-07
    398     (1,398)               1.94565245E-04
    399     (1,399)               3.16466930E-06
    400     (1,400)               1.43542278E-07
    401     (1,401)               1.91740420E-05
    402     (1,402)               2.10514963E-06
    403     (1,403)               3.05577828E-05
    404     (1,404)               1.02621967E-04
    405     (1,405)               1.49605950E-06
    406     (1,406)               3.36109409E-06
    407     (1,407)               4.44121902E-05
    408     (1,408)               1.44842584E-07
    409     (1,409)               1.04739803E-04
    410     (1,410)               1.39106317E-07
    411     (1,411)               1.14135274E-06
    412     (1,412)               1.10886315E-06
    413     (1,413)               2.48033765E-07
    414     (1,414)               1.38289757E-07
    415     (1,415)               2.75078196E-06
    416     (1,416)               3.30098139E-07
    417     (1,417)               3.22592619E-07
    418     (1,418)               1.76177278E-06
    419     (1,419)               1.10827062E-06
    420     (1,420)               4.74889593E-07
    421     (1,421)               1.43456895E-07
    422     (1,422)               1.01338572E-05
    423     (1,423)               2.05675070E-06
    424     (1,424)               1.43539454E-07
    425     (1,425)               3.25266283E-05
    426     (1,426)               6.71216592E-05
    427     (1,427)               1.29694200E-04
    428     (1,428)               3.42207512E-04
    429     (1,429)               1.83148081E-04
    430     (1,430)               2.25903163E-03
    431     (1,431)               1.97704050E-04
    432     (1,432)               6.41662004E-05
    433     (1,433)               1.98701640E-04
    434     (1,434)               1.52422002E-04
    435     (1,435)               1.71274066E-04
    436     (1,436)               8.53040415E-05
    437     (1,437)               5.30972294E-06
    438     (1,438)               9.71222268E-07
    439     (1,439)               2.34631556E-05
    440     (1,440)               2.53172744E-04
    441     (1,441)               1.30009989E-04
    442     (1,442)               3.14010568E-06
    443     (1,443)               1.29600340E-04
    444     (1,444)               9.38624814E-05
    445     (1,445)               1.28442776E-04
    446     (1,446)               6.54693938E-05
    447     (1,447)               2.72078624E-06
    448     (1,448)               1.43132299E-07
    449     (1,449)               1.43116609E-07
    450     (1,450)               2.27637614E-06
    451     (1,451)               2.47855891E-07
    452     (1,452)               1.74160010E-06
    453     (1,453)               1.10306195E-06
    454     (1,454)               1.13660684E-06
    455     (1,455)               3.36715884E-07
    456     (1,456)               1.13676038E-06
    457     (1,457)               6.59622376E-06
    458     (1,458)               1.43108914E-07
    459     (1,459)               2.57027570E-07
    460     (1,460)               1.91498508E-06
    461     (1,461)               1.37949436E-07
    462     (1,462)               1.33478643E-07
    463     (1,463)               1.37867069E-07
    464     (1,464)               1.23089749E-04
    465     (1,465)               1.43066968E-07
    466     (1,466)               3.43279472E-07
    467     (1,467)               1.11414929E-06
    468     (1,468)               2.97000491E-07
    469     (1,469)               3.87037395E-05
    470     (1,470)               1.29900203E-07
    471     (1,471)               3.13477042E-07
    472     (1,472)               1.96748729E-06
    473     (1,473)               1.35133875E-07
    474     (1,474)               1.11405017E-06
    475     (1,475)               2.40298897E-05
    476     (1,476)               2.20865404E-07
    477     (1,477)               2.96845828E-07
    478     (1,478)               2.03941364E-05
    479     (1,479)               1.14717009E-06
    480     (1,480)               1.44333572E-07
    481     (1,481)               1.37441286E-06
    482     (1,482)               1.66291140E-06
    483     (1,483)               1.29935218E-07
    484     (1,484)               1.14785332E-06
    485     (1,485)               1.35113087E-07
    486     (1,486)               2.17157296E-06
    487     (1,487)               3.34805177E-06
    488     (1,488)               1.29906827E-07
    489     (1,489)               1.44433203E-07
    490     (1,490)               1.39197113E-07
    491     (1,491)               2.27107622E-05
    492     (1,492)               1.14797598E-06
    493     (1,493)               2.49838905E-07
    494     (1,494)               1.11418798E-06
    495     (1,495)               1.40592430E-06
    496     (1,496)               3.16720113E-06
    497     (1,497)               3.39625757E-07
    498     (1,498)               1.39083923E-07
    499     (1,499)               1.37419546E-06
    500     (1,500)               1.40711739E-06
    501     (1,501)               1.39077345E-07
    502     (1,502)               3.11623405E-05
    503     (1,503)               3.34886823E-06
    504     (1,504)               8.21129734E-05
    505     (1,505)               1.39164848E-07
    506     (1,506)               1.40560138E-06
    507     (1,507)               9.43247381E-05
    508     (1,508)               4.20726944E-05
    509     (1,509)               1.39163123E-07
    510     (1,510)               9.81698660E-05
    511     (1,511)               6.48540070E-04
    512     (1,512)               0.0000000     
    513     (1,513)               1.82094952E-07
    514     (1,514)               1.67575071E-04
    515     (1,515)               3.74230357E-06
    516     (1,516)               1.67132976E-04
    517     (1,517)               1.95409291E-04
    518     (1,518)               2.66307991E-06
    519     (1,519)               1.61838146E-04
    520     (1,520)               2.49718126E-07
    521     (1,521)               7.92774749E-07
    522     (1,522)               2.89987569E-07
    523     (1,523)               9.47960308E-07
    524     (1,524)               4.45332252E-07
    525     (1,525)               1.87598353E-07
    526     (1,526)               2.85678654E-06
    527     (1,527)               1.14361842E-07
    528     (1,528)               9.75595820E-07
    529     (1,529)               1.80539232E-06
    530     (1,530)               1.23683943E-07
    531     (1,531)               1.85585708E-06
    532     (1,532)               1.18293331E-07
    533     (1,533)               8.65805320E-05
    534     (1,534)               1.65555266E-04
    535     (1,535)               1.30998844E-04
    536     (1,536)               2.71755062E-06
    537     (1,537)               1.18228882E-07
    538     (1,538)               1.05523570E-04
    539     (1,539)               1.85676962E-06
    540     (1,540)               1.13038664E-07
    541     (1,541)               2.47423244E-07
    542     (1,542)               9.75585118E-07
    543     (1,543)               1.88876730E-06
    544     (1,544)               1.08734851E-07
    545     (1,545)               2.87928079E-07
    546     (1,546)               1.12119867E-06
    547     (1,547)               1.08722840E-07
    548     (1,548)               9.47362325E-07
    549     (1,549)               2.77803194E-06
    550     (1,550)               3.38374343E-06
    551     (1,551)               3.26146085E-04
    552     (1,552)               1.17050614E-06
    553     (1,553)               1.88311098E-06
    554     (1,554)               1.32954233E-07
    555     (1,555)               1.06524897E-06
    556     (1,556)               3.06074453E-07
    557     (1,557)               1.32991229E-07
    558     (1,558)               1.59134903E-06
    559     (1,559)               3.10043651E-07
    560     (1,560)               3.11424357E-06
    561     (1,561)               1.69005240E-06
    562     (1,562)               2.38417392E-07
    563     (1,563)               2.63887069E-06
    564     (1,564)               3.10420083E-07
    565     (1,565)               1.09595794E-06
    566     (1,566)               1.37865441E-07
    567     (1,567)               1.09625336E-06
    568     (1,568)               1.06551050E-06
    569     (1,569)               1.32918705E-07
    570     (1,570)               6.46991982E-05
    571     (1,571)               2.07963148E-06
    572     (1,572)               3.06039740E-07
    573     (1,573)               1.85187573E-06
    574     (1,574)               2.98485068E-07
    575     (1,575)               1.85015758E-06
    576     (1,576)               2.07842632E-06
    577     (1,577)               1.37675106E-07
    578     (1,578)               2.07898751E-06
    579     (1,579)               1.28598231E-07
    580     (1,580)               1.35673413E-05
    581     (1,581)               2.11900453E-06
    582     (1,582)               1.35861117E-07
    583     (1,583)               1.26575032E-07
    584     (1,584)               3.11208402E-06
    585     (1,585)               1.26274473E-05
    586     (1,586)               1.91916045E-02
    587     (1,587)               2.28137853E-02
    588     (1,588)               1.06484002E-06
    589     (1,589)               9.77684143E-06
    590     (1,590)               1.09558449E-06
    591     (1,591)               5.58548581E-03
    592     (1,592)               1.32788523E-07
    593     (1,593)               3.05973312E-07
    594     (1,594)               6.21690969E-04
    595     (1,595)               1.19761867E-06
    596     (1,596)               2.56918364E-07
    597     (1,597)               1.67298129E-04
    598     (1,598)               1.33863380E-07
    599     (1,599)               1.06333567E-06
    600     (1,600)               1.73801766E-04
    601     (1,601)               1.09485849E-06
    602     (1,602)               1.59584547E-06
    603     (1,603)               1.91974384E-05
    604     (1,604)               1.67168597E-04
    605     (1,605)               1.06466533E-06
    606     (1,606)               1.86044140E-06
    607     (1,607)               3.52690555E-07
    608     (1,608)               1.52652503E-07
    609     (1,609)               1.09430385E-06
    610     (1,610)               2.09895948E-06
    611     (1,611)               2.96067897E-07
    612     (1,612)               2.88642545E-07
    613     (1,613)               3.13435846E-06
    614     (1,614)               1.27526829E-07
    615     (1,615)               1.41005503E-07
    616     (1,616)               1.22949805E-07
    617     (1,617)               1.28886064E-07
    618     (1,618)               4.63597099E-07
    619     (1,619)               4.89846357E-06
    620     (1,620)               1.86805929E-05
    621     (1,621)               1.25428797E-07
    622     (1,622)               1.54147372E-07
    623     (1,623)               1.05275302E-04
    624     (1,624)               1.58451384E-07
    625     (1,625)               1.25805374E-06
    626     (1,626)               3.52744143E-07
    627     (1,627)               1.52612506E-07
    628     (1,628)               2.31905947E-06
    629     (1,629)               1.25832461E-06
    630     (1,630)               1.52646441E-07
    631     (1,631)               1.58515493E-07
    632     (1,632)               3.55732881E-06
    633     (1,633)               2.37223057E-06
    634     (1,634)               1.22118867E-06
    635     (1,635)               2.97196521E-07
    636     (1,636)               2.46999012E-07
    637     (1,637)               1.43477405E-07
    638     (1,638)               1.58463553E-07
    639     (1,639)               2.65051654E-06
    640     (1,640)               1.67926423E-07
    641     (1,641)               1.54028552E-06
    642     (1,642)               3.57879105E-07
    643     (1,643)               5.29160006E-07
    644     (1,644)               1.28877508E-06
    645     (1,645)               6.63603531E-06
    646     (1,646)               2.06778366E-06
    647     (1,647)               1.60562784E-04
    648     (1,648)               2.68645640E-03
    649     (1,649)               2.26120106E-06
    650     (1,650)               0.21326236    
    651     (1,651)               1.28868164E-06
    652     (1,652)               3.81081575E-07
    653     (1,653)               3.95933054E-07
    654     (1,654)               1.32878559E-06
    655     (1,655)               5.66199138E-07
    656     (1,656)               1.33003713E-06
    657     (1,657)               1.50398269E-06
    658     (1,658)               1.61383215E-07
    659     (1,659)               3.66254286E-06
    660     (1,660)               1.52614917E-07
    661     (1,661)               3.55635897E-06
    662     (1,662)               1.52552927E-07
    663     (1,663)               1.58512097E-07
    664     (1,664)               1.22134387E-06
    665     (1,665)               2.43047835E-06
    666     (1,666)               2.37205340E-06
    667     (1,667)               2.42884433E-06
    668     (1,668)               3.73060819E-07
    669     (1,669)               1.52748443E-07
    670     (1,670)               2.37314847E-06
    671     (1,671)               1.09387853E-03
    672     (1,672)               1.52714837E-07
    673     (1,673)               1.52691332E-07
    674     (1,674)               2.11926620E-06
    675     (1,675)               4.50785076E-07
    676     (1,676)               2.11730866E-06
    677     (1,677)               1.52608809E-07
    678     (1,678)               1.53995187E-06
    679     (1,679)               2.74488006E-07
    680     (1,680)               7.36041169E-02
    681     (1,681)               2.64895861E-03
    682     (1,682)               1.05419624E-04
    683     (1,683)               3.16213957E-06
    684     (1,684)               1.07162695E-02
    685     (1,685)               8.46720800E-02
    686     (1,686)               1.25172394E-04
    687     (1,687)               1.28234767E-07
    688     (1,688)               5.48817813E-03
    689     (1,689)               7.35510370E-03
    690     (1,690)               9.20408700E-04
    691     (1,691)               4.31295067E-04
    692     (1,692)               1.13147750E-03
    693     (1,693)               2.69122068E-02
    694     (1,694)               0.0000000     
    695     (1,695)               4.42113023E-04
    696     (1,696)               6.36333637E-04
    697     (1,697)               1.53428885E-02
    698     (1,698)               0.0000000     
    699     (1,699)               3.81660177E-03
    700     (1,700)               0.0000000     
    701     (1,701)               1.12088517E-02
    702     (1,702)               1.93541921E-02
    703     (1,703)               0.0000000     
    704     (1,704)               1.82615001E-02
    705     (1,705)               3.25452436E-02
    706     (1,706)               2.93062302E-02
    707     (1,707)               2.20607820E-03
    708     (1,708)               0.0000000     
    709     (1,709)               3.55985067E-03
    710     (1,710)               4.63443870E-03
    711     (1,711)               0.0000000     
    712     (1,712)               1.40160031E-02
    713     (1,713)               3.95722731E-04
    714     (1,714)               5.47226985E-04
    715     (1,715)               4.72517132E-03
    716     (1,716)               1.20385392E-02
    717     (1,717)               5.22202226E-03
    718     (1,718)               8.89721991E-04
    719     (1,719)               2.35253070E-04
    720     (1,720)               7.45929171E-04
    721     (1,721)               6.36911195E-04
    722     (1,722)               1.73358794E-04
    723     (1,723)               0.0000000     
    724     (1,724)               2.62655847E-02
    725     (1,725)               1.26226592E-03
    726     (1,726)               3.00232992E-03
    727     (1,727)               8.88364308E-04
    728     (1,728)               7.37870473E-04
    729     (1,729)               1.97960977E-04
    730     (1,730)               3.60714426E-04
    731     (1,731)               4.37049042E-04
    732     (1,732)               0.21207939    
    733     (1,733)               2.04718967E-02
    734     (1,734)               4.53723673E-04
    735     (1,735)               4.44831168E-04
    736     (1,736)               7.37265323E-03
    737     (1,737)               9.83023290E-05
    738     (1,738)               1.41690388E-03
    739     (1,739)               0.0000000     
    740     (1,740)               9.00690330E-02
    741     (1,741)               1.15766231E-03
    742     (1,742)               1.43171552E-03
    743     (1,743)               4.74670582E-03
    744     (1,744)               6.73979440E-03
    745     (1,745)               5.81884386E-04
    746     (1,746)               5.36084309E-03
    747     (1,747)               8.92150623E-03
    748     (1,748)               0.0000000     
    749     (1,749)               2.29773744E-03
    750     (1,750)               2.28090593E-04
    751     (1,751)               1.30297640E-02
    752     (1,752)               0.0000000     
    753     (1,753)               6.12006086E-03
    754     (1,754)               2.88098207E-02
    755     (1,755)               0.0000000     
    756     (1,756)               7.54378197E-03
    757     (1,757)               1.99329307E-04
    758     (1,758)               2.93590001E-03
    759     (1,759)               6.12426351E-04
    760     (1,760)               6.45372333E-04
    761     (1,761)               1.60563772E-03
    762     (1,762)               6.72877214E-04
    763     (1,763)               6.73343166E-04
    764     (1,764)               9.49954502E-04
    765     (1,765)               9.30868508E-02
    766     (1,766)               1.45338706E-04
    767     (1,767)               7.04494927E-04
    768     (1,768)               1.17477603E-02
    769     (1,769)               2.23758657E-02
    770     (1,770)               3.75950901E-04
    771     (1,771)               0.0000000     
    772     (1,772)               5.55818869E-04
    773     (1,773)               1.49359979E-03
    774     (1,774)               1.76558087E-04
    775     (1,775)               1.47884648E-06
    776     (1,776)               2.23046388E-06
    777     (1,777)               2.31651497E-05
    778     (1,778)               4.56854810E-02
    779     (1,779)               2.89302438E-06
    780     (1,780)               3.38327651E-07
    781     (1,781)               1.52160458E-07
    782     (1,782)               3.32942790E-06
    783     (1,783)               1.44582533E-06
    784     (1,784)               2.06924542E-06
    785     (1,785)               1.52319001E-07
    786     (1,786)               1.20860955E-06
    787     (1,787)               1.75089145E-06
    788     (1,788)               1.46500885E-07
    789     (1,789)               1.17478484E-06
    790     (1,790)               2.63409613E-07
    791     (1,791)               1.52350022E-07
    792     (1,792)               1.85502660E-06
    793     (1,793)               1.21084747E-06
    794     (1,794)               1.17329114E-06
    795     (1,795)               1.46832185E-07
    796     (1,796)               2.63888778E-07
    797     (1,797)               1.21120661E-06
    798     (1,798)               1.46814861E-07
    799     (1,799)               1.17389278E-06
    800     (1,800)               1.17290066E-06
    801     (1,801)               1.46778120E-07
    802     (1,802)               1.52380879E-07
    803     (1,803)               2.07189807E-06
    804     (1,804)               1.20999419E-06
    805     (1,805)               1.52348537E-07
    806     (1,806)               1.46936946E-07
    807     (1,807)               1.17434751E-06
    808     (1,808)               3.58381632E-07
    809     (1,809)               3.39011040E-07
    810     (1,810)               2.28562200E-06
    811     (1,811)               1.84715092E-05
    812     (1,812)               1.34113370E-07
    813     (1,813)               1.52448685E-02
    814     (1,814)               0.0000000     
    815     (1,815)               8.48642912E-07
    816     (1,816)               1.47014879E-06
    817     (1,817)               2.45584905E-07
    818     (1,818)               1.06104819E-07
    819     (1,819)               0.18472708    
    820     (1,820)               1.61257263E-06
    821     (1,821)               8.71299917E-07
    822     (1,822)               8.45125481E-07
    823     (1,823)               3.85433874E-07
    824     (1,824)               1.37654112E-03
    825     (1,825)               1.64317305E-06
    826     (1,826)               2.46102225E-06
    827     (1,827)               1.05630032E-07
    828     (1,828)               1.05973624E-07
    829     (1,829)               8.74051235E-07
    830     (1,830)               1.88270053E-07
    831     (1,831)               1.10234552E-07
    832     (1,832)               2.37530057E-02
    833     (1,833)               1.52978644E-06
    834     (1,834)               3.38662860E-07
    835     (1,835)               2.57181519E-07
    836     (1,836)               1.46615147E-07
    837     (1,837)               2.39792796E-06
    838     (1,838)               1.06211672E-07
    839     (1,839)               8.79136168E-07
    840     (1,840)               8.54948065E-07
    841     (1,841)               1.07174772E-06
    842     (1,842)               2.54396003E-06
    843     (1,843)               6.74606969E-07
    844     (1,844)               1.71786604E-06
    845     (1,845)               1.09842990E-07
    846     (1,846)               1.70589014E-06
    847     (1,847)               1.09833687E-07
    848     (1,848)               1.06182800E-07
    849     (1,849)               1.28854154E-06
    850     (1,850)               1.10459108E-07
    851     (1,851)               3.57654450E-04
    852     (1,852)               1.50338021E-06
    853     (1,853)               1.46736670E-07
    854     (1,854)               4.50647497E-04
    855     (1,855)               1.41549348E-02
    856     (1,856)               0.0000000     
    857     (1,857)               2.49282448E-03
    858     (1,858)               6.35764777E-03
    859     (1,859)               1.40860959E-03
    860     (1,860)               1.61831758E-03
    861     (1,861)               6.39831874E-04
    862     (1,862)               5.81195664E-04
    863     (1,863)               1.09669843E-03
    864     (1,864)               1.06504655E-04
    865     (1,865)               3.72456770E-03
    866     (1,866)               1.36464064E-04
    867     (1,867)               0.13536979    
    868     (1,868)               3.98034624E-03
    869     (1,869)               1.58137731E-03
    870     (1,870)               6.30257839E-04
    871     (1,871)               1.18537097E-04
    872     (1,872)               2.46073644E-03
    873     (1,873)               9.76533464E-04
    874     (1,874)               1.43329471E-02
    875     (1,875)               7.87958341E-04
    876     (1,876)               9.85333347E-04
    877     (1,877)               5.45101073E-03
    878     (1,878)               3.22034389E-02
    879     (1,879)               5.21779163E-04
    880     (1,880)               2.74661222E-03
    881     (1,881)               4.36266690E-03
    882     (1,882)               1.30579018E-03
    883     (1,883)               3.70566750E-04
    884     (1,884)               2.57417482E-03
    885     (1,885)               5.31412947E-04
    886     (1,886)               5.18698525E-03
    887     (1,887)               9.48257901E-04
    888     (1,888)               1.99194666E-03
    889     (1,889)               1.54938900E-03
    890     (1,890)               2.16633691E-03
    891     (1,891)               1.37496281E-03
    892     (1,892)               3.34114401E-03
    893     (1,893)               2.01045381E-03
    894     (1,894)               1.35058614E-03
    895     (1,895)               1.97730848E-03
    896     (1,896)               1.26224075E-03
    897     (1,897)               2.46302736E-03
    898     (1,898)               1.07246432E-02
    899     (1,899)               1.91957880E-03
    900     (1,900)               3.15264875E-04
    901     (1,901)               2.00263680E-04
    902     (1,902)               5.16580035E-04
    903     (1,903)               2.65611138E-04
    904     (1,904)               3.32172359E-04
    905     (1,905)               1.13179025E-03
    906     (1,906)               3.33054832E-03
    907     (1,907)               1.07122788E-03
    908     (1,908)               4.55339096E-03
    909     (1,909)               7.29284368E-04
    910     (1,910)               1.06256532E-03
    911     (1,911)               1.35358843E-03
    912     (1,912)               1.35108687E-03
    913     (1,913)               4.18088234E-03
    914     (1,914)               1.63698567E-03
    915     (1,915)               3.62330869E-03
    916     (1,916)               5.58858238E-04
    917     (1,917)               5.06642548E-04
    918     (1,918)               1.78406375E-03
    919     (1,919)               1.27031426E-03
    920     (1,920)               1.67245979E-03
    921     (1,921)               1.64457309E-03
    922     (1,922)               1.09160080E-03
    923     (1,923)               1.85818517E-03
    924     (1,924)               2.05393570E-03
    925     (1,925)               1.35298483E-03
    926     (1,926)               1.22009276E-03
    927     (1,927)               3.76232044E-04
    928     (1,928)               7.48859509E-04
    929     (1,929)               1.16007340E-03
    930     (1,930)               7.39726612E-04
    931     (1,931)               9.35516465E-04
    932     (1,932)               9.96487252E-04
    933     (1,933)               1.87124314E-03
    934     (1,934)               4.57652922E-03
    935     (1,935)               6.06375292E-04
    936     (1,936)               1.28183746E-03
    937     (1,937)               1.91678278E-03
    938     (1,938)               3.86809795E-04
    939     (1,939)               8.67319663E-04
    940     (1,940)               1.53745986E-03
    941     (1,941)               1.36665797E-03
    942     (1,942)               1.10560947E-02
    943     (1,943)               1.71801407E-03
    944     (1,944)               1.13960914E-03
    945     (1,945)               8.70470183E-04
    946     (1,946)               1.26973342E-03
    947     (1,947)               4.67003374E-04
    948     (1,948)               1.60911831E-03
    949     (1,949)               1.58870253E-03
    950     (1,950)               4.96928727E-04
    951     (1,951)               9.07356910E-04
    952     (1,952)               2.87079552E-03
    953     (1,953)               5.34973130E-04
    954     (1,954)               9.38793674E-04
    955     (1,955)               6.38035172E-04
    956     (1,956)               2.00654331E-03
    957     (1,957)               1.44482330E-03
    958     (1,958)               3.24195112E-03
    959     (1,959)               5.16436721E-04
    960     (1,960)               9.32625039E-03
    961     (1,961)               8.66572499E-04
    962     (1,962)               8.76001989E-04
    963     (1,963)               1.57471347E-03
    964     (1,964)               1.06989454E-03
    965     (1,965)               8.10158870E-04
    966     (1,966)               8.47100956E-04
    967     (1,967)               2.45874073E-03
    968     (1,968)               1.13589337E-03
    969     (1,969)               3.58675693E-04
    970     (1,970)               9.84200367E-04
    971     (1,971)               5.74204969E-04
    972     (1,972)               2.53706298E-04
    973     (1,973)               1.05029554E-03
    974     (1,974)               1.75333268E-04
    975     (1,975)               9.95194883E-04
    976     (1,976)               1.04159773E-03
    977     (1,977)               8.33336315E-04
    978     (1,978)               5.43600782E-04
    979     (1,979)               7.09226857E-04
    980     (1,980)               1.26640484E-03
    981     (1,981)               5.97042580E-03
    982     (1,982)               3.09779682E-03
    983     (1,983)               8.80203829E-04
    984     (1,984)               1.00310973E-03
    985     (1,985)               5.31892841E-04
    986     (1,986)               6.42878263E-04
    987     (1,987)               3.64368494E-03
    988     (1,988)               3.09877091E-04
    989     (1,989)               3.71565438E-03
    990     (1,990)               9.82860609E-04
    991     (1,991)               4.92889540E-04
    992     (1,992)               9.76754383E-04
    993     (1,993)               1.93495863E-03
    994     (1,994)               2.14715245E-03
    995     (1,995)               1.58007522E-04
    996     (1,996)               2.10135563E-03
    997     (1,997)               5.40163675E-04
    998     (1,998)               4.49174014E-04
    999     (1,999)               3.43187615E-04
    1000    (1,1000)              1.59062073E-03
    1001    (1,1001)              1.25748351E-03
    1002    (1,1002)              2.86863319E-03
    1003    (1,1003)              1.99886155E-03
    1004    (1,1004)              4.29841261E-03
    1005    (1,1005)              1.52360562E-03
    1006    (1,1006)              1.29896111E-03
    1007    (1,1007)              2.17807717E-03
    1008    (1,1008)              5.06848483E-03
    1009    (1,1009)              1.15701974E-03
    1010    (1,1010)              4.65142071E-03
    1011    (1,1011)              2.34814316E-03
    1012    (1,1012)              1.05572092E-03
    1013    (1,1013)              2.32181433E-03
    1014    (1,1014)              1.15161337E-03
    1015    (1,1015)              1.32373835E-03
    1016    (1,1016)              1.32630110E-03
    1017    (1,1017)              4.43770326E-03
    1018    (1,1018)              2.16760603E-03
    1019    (1,1019)              5.67313599E-04
    1020    (1,1020)              2.44788200E-03
    1021    (1,1021)              1.75170198E-03
    1022    (1,1022)              3.47083212E-03
    1023    (1,1023)              1.55164320E-03
    1024    (1,1024)              4.49441889E-03
    1025    (1,1025)              3.61148735E-04
    1026    (1,1026)              1.82792286E-03
    1027    (1,1027)              3.37131340E-03
    1028    (1,1028)              9.22352552E-03
    1029    (1,1029)              1.46759787E-07
    1030    (1,1030)              0.15992779    
    1031    (1,1031)              1.46967868E-07
    1032    (1,1032)              1.21170574E-06
    1033    (1,1033)              3.43700994E-06
    1034    (1,1034)              2.42976686E-06
    1035    (1,1035)              1.52534839E-07
    1036    (1,1036)              1.47051421E-07
    1037    (1,1037)              1.17699049E-06
    1038    (1,1038)              1.52536033E-07
    1039    (1,1039)              3.42541982E-06
    1040    (1,1040)              2.42508937E-06
    1041    (1,1041)              1.29479630E-07
    1042    (1,1042)              7.06410803E-07
    1043    (1,1043)              6.88345230E-05
    1044    (1,1044)              2.64112173E-07
    1045    (1,1045)              3.58911937E-07
    1046    (1,1046)              3.15113180E-07
    1047    (1,1047)              2.29428865E-06
    1048    (1,1048)              2.31369649E-06
    1049    (1,1049)              1.97945135E-06
    1050    (1,1050)              1.44764645E-07
    1051    (1,1051)              1.67297882E-06
    1052    (1,1052)              1.29940972E-07
    1053    (1,1053)              1.44709778E-07
    1054    (1,1054)              1.15116869E-06
    1055    (1,1055)              2.50197328E-07
    1056    (1,1056)              1.11836149E-06
    1057    (1,1057)              3.78615572E-06
    1058    (1,1058)              1.05819461E-06
    1059    (1,1059)              2.20046396E-07
    1060    (1,1060)              1.15163905E-06
    1061    (1,1061)              1.11842913E-06
    1062    (1,1062)              2.96229133E-07
    1063    (1,1063)              1.29887509E-07
    1064    (1,1064)              1.77645422E-06
    1065    (1,1065)              1.35055233E-07
    1066    (1,1066)              1.80705740E-06
    1067    (1,1067)              0.11746820    
    1068    (1,1068)              1.35060894E-07
    1069    (1,1069)              1.39652451E-07
    1070    (1,1070)              1.29553729E-07
    1071    (1,1071)              1.06787724E-06
    1072    (1,1072)              1.29350722E-07
    1073    (1,1073)              1.03670707E-06
    1074    (1,1074)              1.29396344E-07
    1075    (1,1075)              1.34153640E-07
    1076    (1,1076)              1.97756059E-06
    1077    (1,1077)              2.97258256E-07
    1078    (1,1078)              3.04546482E-06
    1079    (1,1079)              2.13504859E-06
    1080    (1,1080)              1.06099282E-07
    1081    (1,1081)              4.42578066E-07
    1082    (1,1082)              1.31151549E-06
    1083    (1,1083)              3.13156428E-06
    1084    (1,1084)              1.29215994E-07
    1085    (1,1085)              1.29181035E-07
    1086    (1,1086)              1.28201522E-06
    1087    (1,1087)              3.14491091E-07
    1088    (1,1088)              1.83755382E-06
    1089    (1,1089)              2.03623741E-06
    1090    (1,1090)              2.31704923E-07
    1091    (1,1091)              2.07030857E-06
    1092    (1,1092)              1.03860284E-06
    1093    (1,1093)              2.03750553E-06
    1094    (1,1094)              2.97674903E-07
    1095    (1,1095)              1.29461938E-07
    1096    (1,1096)              3.04713517E-06
    1097    (1,1097)              1.34300413E-07
    1098    (1,1098)              1.80821320E-06
    1099    (1,1099)              1.23102323E-06
    1100    (1,1100)              2.32210127E-07
    1101    (1,1101)              1.29532572E-07
    1102    (1,1102)              2.03771675E-06
    1103    (1,1103)              1.06720227E-06
    1104    (1,1104)              2.97645853E-07
    1105    (1,1105)              2.84695362E-07
    1106    (1,1106)              1.69999753E-05
    1107    (1,1107)              1.34300560E-07
    1108    (1,1108)              2.06994544E-06
    1109    (1,1109)              1.29552908E-07
    1110    (1,1110)              1.06910831E-06
    1111    (1,1111)              1.29364812E-07
    1112    (1,1112)              3.49697653E-03
    1113    (1,1113)              3.27709150E-06
    1114    (1,1114)              1.38016637E-03
    1115    (1,1115)              2.22945160E-06
    1116    (1,1116)              1.43592111E-06
    1117    (1,1117)              2.18892606E-06
    1118    (1,1118)              2.20512985E-05
    1119    (1,1119)              2.20208505E-07
    1120    (1,1120)              3.27495715E-06
    1121    (1,1121)              1.39600910E-07
    1122    (1,1122)              1.94772052E-06
    1123    (1,1123)              1.15048597E-06
    1124    (1,1124)              3.42350840E-07
    1125    (1,1125)              2.18836560E-06
    1126    (1,1126)              1.29966002E-07
    1127    (1,1127)              3.39947881E-07
    1128    (1,1128)              2.22778730E-06
    1129    (1,1129)              1.11793174E-06
    1130    (1,1130)              1.94779781E-06
    1131    (1,1131)              2.96332369E-07
    1132    (1,1132)              2.60185550E-07
    1133    (1,1133)              6.14803513E-03
    1134    (1,1134)              1.35006989E-07
    1135    (1,1135)              3.82060802E-03
    1136    (1,1136)              3.96299863E-03
    1137    (1,1137)              2.91223652E-02
    1138    (1,1138)              9.94051677E-03
    1139    (1,1139)              3.06047850E-03
    1140    (1,1140)              0.12325253    
    1141    (1,1141)              1.41425716E-03
    1142    (1,1142)              1.41496637E-03
    1143    (1,1143)              0.11133635    
    1144    (1,1144)              3.81291106E-03
    1145    (1,1145)              9.50037879E-03
    1146    (1,1146)              3.67850594E-03
    1147    (1,1147)              1.36757603E-03
    1148    (1,1148)              1.33123868E-02
    1149    (1,1149)              6.49040350E-02
    1150    (1,1150)              3.57502356E-03
    1151    (1,1151)              0.27841959    
    1152    (1,1152)              3.71892799E-03
    1153    (1,1153)              1.35065998E-07
    1154    (1,1154)              6.24152700E-03
    1155    (1,1155)              1.37783018E-03
    1156    (1,1156)              1.25870609E-02
    1157    (1,1157)              3.68370040E-03
    1158    (1,1158)              3.52984969E-03
    1159    (1,1159)              1.31010930E-03
    1160    (1,1160)              5.98315205E-02
    1161    (1,1161)              2.11464669E-02
    1162    (1,1162)              8.91169100E-03
    1163    (1,1163)              1.37536970E-03
    1164    (1,1164)              1.02209751E-02
    1165    (1,1165)              3.28411022E-03
    1166    (1,1166)              3.28223872E-03
    1167    (1,1167)              3.69238243E-03
    1168    (1,1168)              1.37710630E-03
    1169    (1,1169)              1.36968139E-03
    1170    (1,1170)              3.70910673E-03
    1171    (1,1171)              1.01851030E-02
    1172    (1,1172)              1.36858849E-03
    1173    (1,1173)              2.01256788E-03
    1174    (1,1174)              3.71803350E-03
    1175    (1,1175)              1.30688975E-03
    1176    (1,1176)              2.46506895E-03
    1177    (1,1177)              1.31725906E-03
    1178    (1,1178)              1.31356839E-03
    1179    (1,1179)              8.92161398E-04
    1180    (1,1180)              2.48799002E-03
    1181    (1,1181)              3.54562826E-03
    1182    (1,1182)              1.89702702E-03
    1183    (1,1183)              1.30424991E-03
    1184    (1,1184)              8.91795479E-04
    1185    (1,1185)              1.30022818E-03
    1186    (1,1186)              1.88915600E-03
    1187    (1,1187)              1.58476419E-03
    1188    (1,1188)              1.85792303E-03
    1189    (1,1189)              2.04279184E-03
    1190    (1,1190)              3.01194004E-03
    1191    (1,1191)              9.73042680E-03
    1192    (1,1192)              9.96850319E-03
    1193    (1,1193)              1.38191795E-03
    1194    (1,1194)              2.89922829E-03
    1195    (1,1195)              7.00731959E-03
    1196    (1,1196)              4.64412975E-03
    1197    (1,1197)              8.21375810E-04
    1198    (1,1198)              2.18842980E-06
    1199    (1,1199)              1.17713949E-06
    1200    (1,1200)              7.09760572E-03
    1201    (1,1201)              5.68619986E-03
    1202    (1,1202)              1.29899195E-03
    1203    (1,1203)              1.29895334E-03
    1204    (1,1204)              2.22632628E-03
    1205    (1,1205)              1.30431132E-03
    1206    (1,1206)              1.30330035E-03
    1207    (1,1207)              3.45699343E-03
    1208    (1,1208)              1.95321706E-03
    1209    (1,1209)              7.13957001E-04
    1210    (1,1210)              3.36002317E-03
    1211    (1,1211)              5.59489423E-04
    1212    (1,1212)              5.73187400E-04
    1213    (1,1213)              7.90515503E-04
    1214    (1,1214)              2.65748081E-03
    1215    (1,1215)              2.39760178E-03
    1216    (1,1216)              3.55542061E-03
    1217    (1,1217)              2.92543988E-03
    1218    (1,1218)              1.37156604E-03
    1219    (1,1219)              3.90836492E-03
    1220    (1,1220)              1.33626021E-03
    1221    (1,1221)              2.44974781E-03
    1222    (1,1222)              2.45266890E-03
    1223    (1,1223)              3.17725031E-03
    1224    (1,1224)              1.33911306E-03
    1225    (1,1225)              1.63276252E-02
    1226    (1,1226)              3.45731521E-03
    1227    (1,1227)              2.71706471E-03
    1228    (1,1228)              1.31486415E-03
    1229    (1,1229)              1.31845581E-03
    1230    (1,1230)              2.90964845E-03
    1231    (1,1231)              1.86416429E-03
    1232    (1,1232)              6.07503307E-03
    1233    (1,1233)              1.32786830E-03
    1234    (1,1234)              2.71508072E-03
    1235    (1,1235)              3.43564001E-03
    1236    (1,1236)              1.03190471E-03
    1237    (1,1237)              1.33191183E-03
    1238    (1,1238)              2.68808768E-03
    1239    (1,1239)              6.44802889E-03
    1240    (1,1240)              1.33085692E-03
    1241    (1,1241)              7.34291753E-04
    1242    (1,1242)              3.80235650E-03
    1243    (1,1243)              8.65301574E-04
    1244    (1,1244)              3.69998534E-03
    1245    (1,1245)              5.90779413E-04
    1246    (1,1246)              3.92729827E-03
    1247    (1,1247)              9.28424758E-04
    1248    (1,1248)              3.42579007E-03
    1249    (1,1249)              9.32479597E-04
    1250    (1,1250)              4.40521815E-04
    1251    (1,1251)              1.05715646E-03
    1252    (1,1252)              4.24037326E-04
    1253    (1,1253)              2.07659228E-03
    1254    (1,1254)              1.30666884E-03
    1255    (1,1255)              1.29219037E-03
    1256    (1,1256)              8.83795364E-04
    1257    (1,1257)              2.27581555E-03
    1258    (1,1258)              3.58138816E-03
    1259    (1,1259)              2.03082532E-03
    1260    (1,1260)              1.83805847E-03
    1261    (1,1261)              1.21778233E-03
    1262    (1,1262)              2.87112230E-03
    1263    (1,1263)              5.68385115E-04
    1264    (1,1264)              3.04432724E-03
    1265    (1,1265)              8.02616799E-04
    1266    (1,1266)              2.94535774E-03
    1267    (1,1267)              8.13297679E-04
    1268    (1,1268)              2.36000972E-03
    1269    (1,1269)              9.56095463E-04
    1270    (1,1270)              9.14557780E-04
    1271    (1,1271)              1.10294550E-03
    1272    (1,1272)              9.32809956E-04
    1273    (1,1273)              6.78892966E-03
    1274    (1,1274)              3.84562623E-03
    1275    (1,1275)              7.08226214E-03
    1276    (1,1276)              8.46044382E-04
    1277    (1,1277)              7.07715658E-04
    1278    (1,1278)              7.14520211E-03
    1279    (1,1279)              3.54525548E-03
    1280    (1,1280)              1.08130796E-03
    1281    (1,1281)              3.73752825E-03
    1282    (1,1282)              7.66414306E-03
    1283    (1,1283)              2.69709738E-03
    1284    (1,1284)              1.26724846E-03
    1285    (1,1285)              1.35568877E-03
    1286    (1,1286)              5.44986704E-04
    1287    (1,1287)              4.66099468E-04
    1288    (1,1288)              5.47281976E-04
    1289    (1,1289)              9.97331877E-04
    1290    (1,1290)              1.37371928E-03
    1291    (1,1291)              6.44862156E-03
    1292    (1,1292)              6.37573154E-03
    1293    (1,1293)              1.37102433E-03
    1294    (1,1294)              3.59070604E-03
    1295    (1,1295)              2.00524336E-03
    1296    (1,1296)              1.37053750E-03
    1297    (1,1297)              7.92936209E-04
    1298    (1,1298)              1.73673526E-03
    1299    (1,1299)              2.11914161E-03
    1300    (1,1300)              5.48677083E-04
    1301    (1,1301)              2.12283078E-03
    1302    (1,1302)              1.05286158E-03
    1303    (1,1303)              9.85803625E-04
    1304    (1,1304)              6.18295418E-03
    1305    (1,1305)              3.69975153E-03
    1306    (1,1306)              2.43668965E-03
    1307    (1,1307)              0.13310208    
    1308    (1,1308)              1.79104769E-03
    1309    (1,1309)              1.93746140E-03
    1310    (1,1310)              8.86386530E-03
    1311    (1,1311)              1.49886640E-02
    1312    (1,1312)              8.90744074E-04
    1313    (1,1313)              2.92249157E-03
    1314    (1,1314)              1.95844175E-03
    1315    (1,1315)              1.29157851E-03
    1316    (1,1316)              6.40722665E-04
    1317    (1,1317)              3.69559917E-03
    1318    (1,1318)              8.76142619E-04
    1319    (1,1319)              5.71021458E-03
    1320    (1,1320)              5.15672577E-03
    1321    (1,1321)              2.13119012E-03
    1322    (1,1322)              1.35841536E-03
    1323    (1,1323)              2.52475761E-03
    1324    (1,1324)              3.63167965E-03
    1325    (1,1325)              1.37487738E-03
    1326    (1,1326)              9.65182900E-03
    1327    (1,1327)              2.61382720E-03
    1328    (1,1328)              1.44985539E-02
    1329    (1,1329)              3.38754034E-03
    1330    (1,1330)              1.77008643E-03
    1331    (1,1331)              9.05729120E-04
    1332    (1,1332)              1.93547652E-03
    1333    (1,1333)              4.01309634E-03
    1334    (1,1334)              1.57229612E-03
    1335    (1,1335)              2.16583397E-03
    1336    (1,1336)              6.33310768E-04
    1337    (1,1337)              3.16435777E-03
    1338    (1,1338)              3.90685907E-03
    1339    (1,1339)              1.93650565E-03
    1340    (1,1340)              4.30942130E-03
    1341    (1,1341)              1.50175780E-03
    1342    (1,1342)              2.29236566E-03
    1343    (1,1343)              5.06401229E-04
    1344    (1,1344)              9.09146423E-04
    1345    (1,1345)              1.78548942E-03
    1346    (1,1346)              7.69832282E-04
    1347    (1,1347)              1.10779575E-03
    1348    (1,1348)              3.70374202E-04
    1349    (1,1349)              9.25540308E-04
    1350    (1,1350)              1.32880076E-03
    1351    (1,1351)              9.69851715E-04
    1352    (1,1352)              6.64596111E-04
    1353    (1,1353)              1.72330723E-03
    1354    (1,1354)              1.47841255E-03
    1355    (1,1355)              1.37424454E-03
    1356    (1,1356)              7.02394128E-04
    1357    (1,1357)              1.37498991E-03
    1358    (1,1358)              1.39465926E-03
    1359    (1,1359)              1.26436777E-03
    1360    (1,1360)              2.94739422E-03
    1361    (1,1361)              6.40371659E-04
    1362    (1,1362)              5.95509326E-03
    1363    (1,1363)              1.95239401E-03
    1364    (1,1364)              4.12925981E-03
    1365    (1,1365)              6.29159774E-03
    1366    (1,1366)              1.47999956E-03
    1367    (1,1367)              3.70798898E-04
    1368    (1,1368)              6.76022529E-03
    1369    (1,1369)              9.16055952E-03
    1370    (1,1370)              8.91634568E-03
    1371    (1,1371)              2.52295132E-03
    1372    (1,1372)              2.90071026E-02
    1373    (1,1373)              1.95486212E-03
    1374    (1,1374)              3.39291431E-07
    1375    (1,1375)              2.74153037E-07
    1376    (1,1376)              7.64302371E-03
    1377    (1,1377)              1.64424067E-06
    1378    (1,1378)              6.53376358E-04
    1379    (1,1379)              4.67167686E-05
    1380    (1,1380)              1.98166388E-04
    1381    (1,1381)              9.83089456E-05
    1382    (1,1382)              0.0000000     
    1383    (1,1383)              4.31088215E-05
    1384    (1,1384)              9.61738197E-05
    1385    (1,1385)              9.99495406E-05
    1386    (1,1386)              3.13137586E-07
    1387    (1,1387)              1.94506201E-05
    1388    (1,1388)              7.14322094E-05
    1389    (1,1389)              1.37115119E-06
    1390    (1,1390)              3.26501892E-06
    1391    (1,1391)              2.43817294E-07
    1392    (1,1392)              8.73547758E-05
    1393    (1,1393)              2.06706659E-06
    1394    (1,1394)              8.74110588E-05
    1395    (1,1395)              2.89579129E-05
    1396    (1,1396)              3.33300738E-07
    1397    (1,1397)              0.0000000     
    1398    (1,1398)              9.73833127E-05
    1399    (1,1399)              8.41199440E-05
    1400    (1,1400)              0.0000000     
    1401    (1,1401)              0.0000000     
    1402    (1,1402)              1.16120108E-04
    1403    (1,1403)              1.00077081E-04
    1404    (1,1404)              9.99681878E-05
    1405    (1,1405)              2.06587837E-06
    1406    (1,1406)              1.37136993E-06
    1407    (1,1407)              1.26722139E-07
    1408    (1,1408)              1.35715794E-07
    1409    (1,1409)              1.37041340E-06
    1410    (1,1410)              3.08785978E-06
    1411    (1,1411)              1.05797130E-04
    1412    (1,1412)              1.67593113E-04
    1413    (1,1413)              1.34079357E-06
    1414    (1,1414)              2.24448053E-04
    1415    (1,1415)              1.18463064E-07
    1416    (1,1416)              1.55856766E-04
    1417    (1,1417)              1.03653816E-04
    1418    (1,1418)              1.20257574E-04
    1419    (1,1419)              3.13006764E-07
    1420    (1,1420)              1.08620840E-06
    1421    (1,1421)              1.62273391E-06
    1422    (1,1422)              1.91849312E-06
    1423    (1,1423)              3.19118114E-05
    1424    (1,1424)              1.40843960E-07
    1425    (1,1425)              1.33971135E-06
    1426    (1,1426)              8.83106713E-05
    1427    (1,1427)              1.71907282E-06
    1428    (1,1428)              1.08652192E-06
    1429    (1,1429)              1.35767645E-07
    1430    (1,1430)              1.40893089E-07
    1431    (1,1431)              8.02219358E-06
    1432    (1,1432)              1.11905671E-06
    1433    (1,1433)              2.85817304E-07
    1434    (1,1434)              3.31201948E-07
    1435    (1,1435)              2.68101098E-06
    1436    (1,1436)              2.90878249E-05
    1437    (1,1437)              1.08658103E-06
    1438    (1,1438)              3.33350470E-07
    1439    (1,1439)              1.32260433E-07
    1440    (1,1440)              1.07240039E-05
    1441    (1,1441)              1.02320862E-06
    1442    (1,1442)              1.05304154E-06
    1443    (1,1443)              1.05340941E-06
    1444    (1,1444)              1.58388273E-06
    1445    (1,1445)              1.53240206E-06
    1446    (1,1446)              1.27524248E-07
    1447    (1,1447)              1.05304058E-06
    1448    (1,1448)              1.02306460E-06
    1449    (1,1449)              1.80081029E-05
    1450    (1,1450)              3.99503731E-05
    1451    (1,1451)              1.81436173E-06
    1452    (1,1452)              1.02307927E-06
    1453    (1,1453)              1.32214627E-07
    1454    (1,1454)              3.21754737E-05
    1455    (1,1455)              1.02354490E-06
[...]
   32159    (1,32159)             0.22174773    
   32160    (1,32160)             0.23719863    
   32161    (1,32161)             0.21240800    
   32162    (1,32162)             0.25789719    
   32163    (1,32163)             0.16948550    
   32164    (1,32164)             0.14176856    
   32165    (1,32165)             0.13123190    
   32166    (1,32166)             0.24647868    
   32167    (1,32167)             0.14342002    
   32168    (1,32168)             0.17901649    
   32169    (1,32169)             0.16661007    
   32170    (1,32170)             0.25717849    
   32171    (1,32171)             0.23475490    
   32172    (1,32172)             0.21924660    
   32173    (1,32173)             0.19191256    
   32174    (1,32174)             0.22336382    
   32175    (1,32175)             0.27772312    
   32176    (1,32176)             0.23259715    
   32177    (1,32177)             0.16127917    
   32178    (1,32178)             0.16134602    
   32179    (1,32179)             0.23781073    
   32180    (1,32180)             0.17236616    
   32181    (1,32181)             0.35458684    
   32182    (1,32182)             0.26770454    
   32183    (1,32183)             0.26241176    
   32184    (1,32184)             0.21961053    
   32185    (1,32185)             0.12938829    
   32186    (1,32186)             0.22332111    
   32187    (1,32187)             0.17716706    
   32188    (1,32188)             0.12506601    
   32189    (1,32189)             0.18923660    
   32190    (1,32190)             0.15287020    
   32191    (1,32191)             0.17795850    
   32192    (1,32192)             0.17443010    
   32193    (1,32193)             0.16788108    
   32194    (1,32194)             0.14667939    
   32195    (1,32195)             0.21508861    
   32196    (1,32196)             0.18604219    
   32197    (1,32197)             0.22208876    
   32198    (1,32198)             0.19956062    
   32199    (1,32199)             0.26965082    
   32200    (1,32200)             0.24188466    
   32201    (1,32201)             0.23957902    
   32202    (1,32202)             0.29800177    
   32203    (1,32203)             0.16603388    
   32204    (1,32204)             0.26347565    
   32205    (1,32205)             0.19147131    
   32206    (1,32206)             0.13486374    
   32207    (1,32207)             0.17303319    
   32208    (1,32208)             0.29840943    
   32209    (1,32209)             0.29357537    
   32210    (1,32210)             0.19658817    
   32211    (1,32211)             0.18199699    
   32212    (1,32212)             0.20429203    
   32213    (1,32213)             0.19678598    
   32214    (1,32214)             0.17413181    
   32215    (1,32215)             0.23558811    
   32216    (1,32216)             0.14888006    
   32217    (1,32217)             0.16532051    
   32218    (1,32218)             0.22142468    
   32219    (1,32219)             0.17493464    
   32220    (1,32220)             0.19163702    
   32221    (1,32221)             0.17401301    
   32222    (1,32222)             0.22497983    
   32223    (1,32223)             0.16991770    
   32224    (1,32224)             0.16530476    
   32225    (1,32225)             0.19613787    
   32226    (1,32226)             0.16267188    
   32227    (1,32227)             0.25049645    
   32228    (1,32228)             0.16348359    
   32229    (1,32229)             0.23487411    
   32230    (1,32230)             0.13630320    
   32231    (1,32231)             0.24524262    
   32232    (1,32232)             0.26436332    
   32233    (1,32233)             0.16044024    
   32234    (1,32234)             0.18574505    
   32235    (1,32235)             0.18646933    
   32236    (1,32236)             0.15471859    
   32237    (1,32237)             0.21565385    
   32238    (1,32238)             0.15414432    
   32239    (1,32239)             0.24045444    
   32240    (1,32240)             0.20899897    
   32241    (1,32241)             0.12475513    
   32242    (1,32242)             0.19866883    
   32243    (1,32243)             0.15015701    
   32244    (1,32244)             0.20098338    
   32245    (1,32245)             0.15568657    
   32246    (1,32246)             0.15689837    
   32247    (1,32247)             0.16866906    
   32248    (1,32248)             0.25281906    
   32249    (1,32249)             0.14752802    
   32250    (1,32250)             0.13682970    
   32251    (1,32251)             0.19322385    
   32252    (1,32252)             0.23793338    
   32253    (1,32253)             0.14976589    
   32254    (1,32254)             0.16704049    
   32255    (1,32255)             0.15152183    
   32256    (1,32256)             0.17330703    
   32257    (1,32257)             0.22610426    
   32258    (1,32258)             0.14755375    
   32259    (1,32259)             0.17154463    
   32260    (1,32260)             0.16777885    
   32261    (1,32261)             0.18543657    
   32262    (1,32262)             0.25007556    
   32263    (1,32263)             0.16859521    
   32264    (1,32264)             0.18919925    
   32265    (1,32265)             0.14055133    
   32266    (1,32266)             0.17384372    
   32267    (1,32267)             0.14524394    
   32268    (1,32268)             0.19358258    
   32269    (1,32269)             0.17038536    
   32270    (1,32270)             0.26316884    
   32271    (1,32271)             0.21307452    
   32272    (1,32272)             0.20637693    
   32273    (1,32273)             0.16947558    
   32274    (1,32274)             0.23950446    
   32275    (1,32275)             0.15220191    
   32276    (1,32276)             0.27822865    
   32277    (1,32277)             0.15242685    
   32278    (1,32278)             0.20367679    
   32279    (1,32279)             0.23603472    
   32280    (1,32280)             0.28062245    
   32281    (1,32281)             0.14201600    
   32282    (1,32282)             0.15206117    
   32283    (1,32283)             0.20340333    
   32284    (1,32284)             0.33990641    
   32285    (1,32285)             0.21591080    
   32286    (1,32286)             0.17103917    
   32287    (1,32287)             0.19795853    
   32288    (1,32288)             0.17856183    
   32289    (1,32289)             0.22318861    
   32290    (1,32290)             0.23756787    
   32291    (1,32291)             0.17709999    
   32292    (1,32292)             0.29222411    
   32293    (1,32293)             0.18724094    
   32294    (1,32294)             0.17670096    
   32295    (1,32295)             0.23260854    
   32296    (1,32296)             0.24884130    
   32297    (1,32297)             0.20106225    
   32298    (1,32298)             0.18866707    
   32299    (1,32299)             0.18933418    
   32300    (1,32300)             0.17267703    
   32301    (1,32301)             0.27725679    
   32302    (1,32302)             0.28072796    
   32303    (1,32303)             0.27060018    
   32304    (1,32304)             0.20099739    
   32305    (1,32305)             0.19366830    
   32306    (1,32306)             0.17521812    
   32307    (1,32307)             0.20783308    
   32308    (1,32308)             0.20171294    
   32309    (1,32309)             0.15066981    
   32310    (1,32310)             0.20169672    
   32311    (1,32311)             0.18750688    
   32312    (1,32312)             0.14886003    
   32313    (1,32313)             0.15573638    
   32314    (1,32314)             0.16415912    
   32315    (1,32315)             0.30168670    
   32316    (1,32316)             0.21139693    
   32317    (1,32317)             0.16660329    
   32318    (1,32318)             0.28333083    
   32319    (1,32319)             0.23009319    
   32320    (1,32320)             0.23576708    
   32321    (1,32321)             0.21440246    
   32322    (1,32322)             0.25709568    
   32323    (1,32323)             0.28058703    
   32324    (1,32324)             0.27989991    
   32325    (1,32325)             0.33549991    
   32326    (1,32326)             0.21509090    
   32327    (1,32327)             0.16753064    
   32328    (1,32328)             0.17291238    
   32329    (1,32329)             0.16761363    
   32330    (1,32330)             0.19638768    
   32331    (1,32331)             0.30976963    
   32332    (1,32332)             0.21115314    
   32333    (1,32333)             0.22371698    
   32334    (1,32334)             0.33052467    
   32335    (1,32335)             0.15427049    
   32336    (1,32336)             0.34334815    
   32337    (1,32337)             0.32811159    
   32338    (1,32338)             0.27880058    
   32339    (1,32339)             0.26261178    
   32340    (1,32340)             0.15271132    
   32341    (1,32341)             0.35134737    
   32342    (1,32342)             0.22292582    
   32343    (1,32343)             0.15173500    
   32344    (1,32344)             0.17137046    
   32345    (1,32345)             0.31025922    
   32346    (1,32346)             0.20540551    
   32347    (1,32347)             0.18478950    
   32348    (1,32348)             0.25115427    
   32349    (1,32349)             0.17693775    
   32350    (1,32350)             0.20024977    
   32351    (1,32351)             0.27851867    
   32352    (1,32352)             0.15950168    
   32353    (1,32353)             0.18930928    
   32354    (1,32354)             0.20223502    
   32355    (1,32355)             0.29700069    
   32356    (1,32356)             0.31379913    
   32357    (1,32357)             0.24654120    
   32358    (1,32358)             0.21620209    
   32359    (1,32359)             0.22057664    
   32360    (1,32360)             0.23198200    
   32361    (1,32361)             0.25432792    
   32362    (1,32362)             0.16272498    
   32363    (1,32363)             0.32425430    
   32364    (1,32364)             0.26253283    
   32365    (1,32365)             0.31887759    
   32366    (1,32366)             0.20814299    
   32367    (1,32367)             0.21016422    
   32368    (1,32368)             0.23496964    
   32369    (1,32369)             0.18775808    
   32370    (1,32370)             0.16054849    
   32371    (1,32371)             0.15672811    
   32372    (1,32372)             0.15879105    
   32373    (1,32373)             0.17740158    
   32374    (1,32374)             0.17397306    
   32375    (1,32375)             0.17043472    
   32376    (1,32376)             0.21160594    
   32377    (1,32377)             0.21544300    
   32378    (1,32378)             0.16784274    
   32379    (1,32379)             9.86965303E-02
   32380    (1,32380)             0.32655352    
   32381    (1,32381)             0.16852075    
   32382    (1,32382)             0.20590159    
   32383    (1,32383)             0.15061791    
   32384    (1,32384)             0.32682246    
   32385    (1,32385)             0.16558387    
   32386    (1,32386)             0.17385461    
   32387    (1,32387)             0.27198389    
   32388    (1,32388)             0.16416598    
   32389    (1,32389)             0.19037873    
   32390    (1,32390)             0.16380142    
   32391    (1,32391)             0.19132766    
   32392    (1,32392)             0.29053602    
   32393    (1,32393)             0.20878208    
   32394    (1,32394)             0.18217711    
   32395    (1,32395)             0.19413918    
   32396    (1,32396)             0.18849519    
   32397    (1,32397)             0.24073151    
   32398    (1,32398)             0.26106061    
   32399    (1,32399)             0.20679743    
   32400    (1,32400)             0.24338123    
   32401    (1,32401)             0.22748624    
   32402    (1,32402)             0.17522905    
   32403    (1,32403)             0.15656347    
   32404    (1,32404)             0.15108663    
   32405    (1,32405)             0.20319583    
   32406    (1,32406)             0.21223964    
   32407    (1,32407)             0.19558089    
   32408    (1,32408)             0.29798782    
   32409    (1,32409)             0.18583072    
   32410    (1,32410)             0.16626192    
   32411    (1,32411)             0.19355019    
   32412    (1,32412)             0.21526349    
   32413    (1,32413)             0.16445428    
   32414    (1,32414)             0.17044056    
   32415    (1,32415)             0.18469055    
   32416    (1,32416)             0.15672113    
   32417    (1,32417)             0.19750074    
   32418    (1,32418)             0.30240066    
   32419    (1,32419)             0.15728002    
   32420    (1,32420)             0.19472119    
   32421    (1,32421)             0.24831887    
   32422    (1,32422)             0.19969307    
   32423    (1,32423)             0.19614562    
   32424    (1,32424)             0.23217170    
   32425    (1,32425)             0.29164893    
   32426    (1,32426)             0.20002172    
   32427    (1,32427)             0.17314137    
   32428    (1,32428)             0.25213057    
   32429    (1,32429)             0.16509377    
   32430    (1,32430)             0.15592292    
   32431    (1,32431)             0.19175374    
   32432    (1,32432)             0.14291666    
   32433    (1,32433)             0.16638743    
   32434    (1,32434)             0.15563514    
   32435    (1,32435)             0.17731483    
   32436    (1,32436)             0.18131738    
   32437    (1,32437)             0.16652193    
   32438    (1,32438)             0.15840360    
   32439    (1,32439)             0.15699715    
   32440    (1,32440)             0.16556663    
   32441    (1,32441)             0.29007615    
   32442    (1,32442)             0.24306614    
   32443    (1,32443)             0.17233618    
   32444    (1,32444)             0.18311888    
   32445    (1,32445)             0.24193412    
   32446    (1,32446)             0.25891986    
   32447    (1,32447)             0.34086818    
   32448    (1,32448)             0.19675076    
   32449    (1,32449)             0.21190663    
   32450    (1,32450)             0.24291009    
   32451    (1,32451)             0.13180043    
   32452    (1,32452)             0.13110562    
   32453    (1,32453)             0.25343810    
   32454    (1,32454)             0.16520426    
   32455    (1,32455)             0.16211509    
   32456    (1,32456)             0.20838599    
   32457    (1,32457)             0.21973054    
   32458    (1,32458)             0.19595572    
   32459    (1,32459)             0.23044540    
   32460    (1,32460)             0.16517258    
   32461    (1,32461)             0.25165120    
   32462    (1,32462)             0.29185245    
   32463    (1,32463)             0.24330280    
   32464    (1,32464)             0.26315931    
   32465    (1,32465)             0.21614605    
   32466    (1,32466)             0.25053084    
   32467    (1,32467)             0.18860331    
   32468    (1,32468)             0.16756061    
   32469    (1,32469)             0.22600591    
   32470    (1,32470)             0.24091152    
   32471    (1,32471)             0.26590713    
   32472    (1,32472)             0.16641467    
   32473    (1,32473)             0.17927683    
   32474    (1,32474)             0.20112201    
   32475    (1,32475)             0.20661203    
   32476    (1,32476)             0.20097065    
   32477    (1,32477)             0.24098250    
   32478    (1,32478)             0.20716061    
   32479    (1,32479)             0.25060297    
   32480    (1,32480)             0.20387911    
   32481    (1,32481)             0.29845166    
   32482    (1,32482)             0.20981736    
   32483    (1,32483)             0.23866038    
   32484    (1,32484)             0.26721692    
   32485    (1,32485)             0.26689857    
   32486    (1,32486)             0.23462494    
   32487    (1,32487)             0.25569337    
   32488    (1,32488)             0.18730194    
   32489    (1,32489)             0.20638550    
   32490    (1,32490)             0.23686093    
   32491    (1,32491)             0.24679990    
   32492    (1,32492)             0.22713536    
   32493    (1,32493)             0.26579293    
   32494    (1,32494)             0.28505314    
   32495    (1,32495)             0.20846885    
   32496    (1,32496)             0.29998245    
   32497    (1,32497)             0.12903927    
   32498    (1,32498)             0.26901564    
   32499    (1,32499)             0.15736065    
   32500    (1,32500)             0.29781933    
   32501    (1,32501)             0.18714624    
   32502    (1,32502)             0.31658989    
   32503    (1,32503)             0.20367659    
   32504    (1,32504)             0.12260645    
   32505    (1,32505)             0.21779906    
   32506    (1,32506)             0.19000488    
   32507    (1,32507)             0.21367438    
   32508    (1,32508)             0.22114656    
   32509    (1,32509)             0.27878482    
   32510    (1,32510)             0.12776615    
   32511    (1,32511)             0.14457752    
   32512    (1,32512)             0.13273778    
   32513    (1,32513)             0.24262971    
   32514    (1,32514)             0.22191675    
   32515    (1,32515)             0.18893081    
 -----------------------------------------------




 HEAD WILL BE SAVED ON UNIT 1018 AT END OF TIME STEP    1, STRESS PERIOD    1


  VOLUME BUDGET FOR ENTIRE MODEL AT END OF TIME STEP    1, STRESS PERIOD   1
  ---------------------------------------------------------------------------------------------------

     CUMULATIVE VOLUME      L**3       RATES FOR THIS TIME STEP      L**3/T          PACKAGE NAME    
     ------------------                 ------------------------                     ----------------

           IN:                                      IN:
           ---                                      ---
                 WEL =           0.0000                   WEL =           0.0000     WELL_PACKAGE                     
                 RCH =         560.0337                   RCH =         560.0337     RCH                              
                 EVT =           0.0000                   EVT =           0.0000     EVT                              
                 CHD =           9.3416                   CHD =           9.3416     CHD                              

            TOTAL IN =         569.3753              TOTAL IN =         569.3753

          OUT:                                     OUT:
          ----                                     ----
                 WEL =          74.5251                   WEL =          74.5251     WELL_PACKAGE                     
                 RCH =           0.0000                   RCH =           0.0000     RCH                              
                 EVT =           6.6987                   EVT =           6.6987     EVT                              
                 CHD =         488.1538                   CHD =         488.1538     CHD                              

           TOTAL OUT =         569.3776             TOTAL OUT =         569.3776

            IN - OUT =      -2.2756E-03              IN - OUT =      -2.2756E-03

 PERCENT DISCREPANCY =          -0.00     PERCENT DISCREPANCY =          -0.00




         TIME SUMMARY AT END OF TIME STEP    1 IN STRESS PERIOD    1
                    SECONDS     MINUTES      HOURS       DAYS        YEARS
                    -----------------------------------------------------------
   TIME STEP LENGTH  1.0000     1.66667E-02 2.77778E-04 1.15741E-05 3.16881E-08
 STRESS PERIOD TIME  1.0000     1.66667E-02 2.77778E-04 1.15741E-05 3.16881E-08
         TOTAL TIME  1.0000     1.66667E-02 2.77778E-04 1.15741E-05 3.16881E-08


end timestep

