                                   MODFLOW 6
                U.S. GEOLOGICAL SURVEY MODULAR HYDROLOGIC MODEL
                            VERSION 6.6.0 12/20/2024

   MODFLOW 6 compiled Dec 31 2024 17:10:16 with Intel(R) Fortran Intel(R) 64
   Compiler Classic for applications running on Intel(R) 64, Version 2021.7.0
                             Build 20220726_000000

This software has been approved for release by the U.S. Geological 
Survey (USGS). Although the software has been subjected to rigorous 
review, the USGS reserves the right to update the software as needed 
pursuant to further analysis and review. No warranty, expressed or 
implied, is made by the USGS or the U.S. Government as to the 
functionality of the software and related material nor shall the 
fact of release constitute any such warranty. Furthermore, the 
software is released on condition that neither the USGS nor the U.S. 
Government shall be held liable for any damages resulting from its 
authorized or unauthorized use. Also refer to the USGS Water 
Resources Software User Rights Notice for complete use, copyright, 
and distribution information.


As a work of the United States Government, this USGS product is 
in the public domain within the United States. You can copy, 
modify, distribute, and perform the work, even for commercial 
purposes, all without asking permission. Additionally, USGS 
waives copyright and related rights in the work worldwide 
through CC0 1.0 Universal Public Domain Dedication 
(https://creativecommons.org/publicdomain/zero/1.0/).

The following GNU Lesser General Public License (LGPL) libraries
are used in this USGS product:

    SPARSKIT version 2.0
      ilut, luson, and qsplit 
      (https://www-users.cse.umn.edu/~saad/software/SPARSKIT/)

    RCM - Reverse Cuthill McKee Ordering
      (https://people.math.sc.edu/Burkardt/f_src/rcm/rcm.html)

    BLAS - Basic Linear Algebra Subprograms Level 1
      (https://people.math.sc.edu/Burkardt/f_src/blas1_d/blas1_d.html)

    SPARSEKIT - Sparse Matrix Utility Package
      amux, dperm, dvperm, rperm, and cperm
      (https://people.sc.fsu.edu/~jburkardt/f77_src/sparsekit/sparsekit.html)

The following BSD-3 License libraries are used in this USGS product:

    Modern Fortran DAG Library
      Copyright (c) 2018, Jacob Williams
      All rights reserved.
      (https://github.com/jacobwilliams/daglib)

MODFLOW 6 compiler options: /O2 /heap-arrays:0 /fpe:0 /traceback /nologo /fpp
/c /module:win64\mod_mf6\ /object:win64\obj_mf6\

System command used to initiate simulation:
C:\Users\sebas\AppData\Local\flopy\bin\mf6.exe

MODFLOW was compiled using uniform precision.

Real Variables
  KIND: 8
  TINY (smallest non-zero value):    2.225074-308
  HUGE (largest value):    1.797693+308
  PRECISION: 15
  SIZE IN BITS: 64

Integer Variables
  KIND: 4
  HUGE (largest value): 2147483647
  SIZE IN BITS: 32

Long Integer Variables
  KIND: 8
  HUGE (largest value): 9223372036854775807
  SIZE IN BITS: 64

Logical Variables
  KIND: 4
  SIZE IN BITS: 32
 

 OPENED mfsim.nam
 FILE TYPE:NAM6               UNIT 1001   STATUS:OLD                 
 FORMAT:FORMATTED              ACCESS:SEQUENTIAL          
 ACTION:READ                

 # File generated by Flopy version 3.9.1 on 04/08/2026 at 09:09:09.

 OPENED DISU_model.tdis
 FILE TYPE:TDIS6              UNIT 1002   STATUS:OLD                 
 FORMAT:FORMATTED              ACCESS:SEQUENTIAL          
 ACTION:READ                

 # File generated by Flopy version 3.9.1 on 04/08/2026 at 09:09:09.

 OPENED DISU_model.nam
 FILE TYPE:GWF6               UNIT 1003   STATUS:OLD                 
 FORMAT:FORMATTED              ACCESS:SEQUENTIAL          
 ACTION:READ                

 # File generated by Flopy version 3.9.1 on 04/08/2026 at 09:09:09.

 OPENED DISU_model.disu
 FILE TYPE:DISU6              UNIT 1004   STATUS:OLD                 
 FORMAT:FORMATTED              ACCESS:SEQUENTIAL          
 ACTION:READ                

 # File generated by Flopy version 3.9.1 on 04/08/2026 at 09:09:09.

 OPENED DISU_model.npf
 FILE TYPE:NPF6               UNIT 1005   STATUS:OLD                 
 FORMAT:FORMATTED              ACCESS:SEQUENTIAL          
 ACTION:READ                

 # File generated by Flopy version 3.9.1 on 04/08/2026 at 09:09:29.

 OPENED DISU_model.ic
 FILE TYPE:IC6                UNIT 1006   STATUS:OLD                 
 FORMAT:FORMATTED              ACCESS:SEQUENTIAL          
 ACTION:READ                

 # File generated by Flopy version 3.9.1 on 04/08/2026 at 09:09:29.

 OPENED DISU_model.oc
 FILE TYPE:OC6       UNIT 1007   STATUS:OLD                 
 FORMAT:FORMATTED              ACCESS:SEQUENTIAL          
 ACTION:READ                


 OPENED DISU_model.wel
 FILE TYPE:WEL6               UNIT 1008   STATUS:OLD                 
 FORMAT:FORMATTED              ACCESS:SEQUENTIAL          
 ACTION:READ                

 # File generated by Flopy version 3.9.1 on 04/08/2026 at 09:09:30.

 OPENED quadtree_caseD.rch
 FILE TYPE:RCH6               UNIT 1010   STATUS:OLD                 
 FORMAT:FORMATTED              ACCESS:SEQUENTIAL          
 ACTION:READ                

 # File generated by Flopy version 3.9.1 on 04/08/2026 at 09:09:30.

 OPENED DISU_model.evt
 FILE TYPE:EVT6               UNIT 1012   STATUS:OLD                 
 FORMAT:FORMATTED              ACCESS:SEQUENTIAL          
 ACTION:READ                

 # File generated by Flopy version 3.9.1 on 04/08/2026 at 09:09:31.

 OPENED DISU_model.chd
 FILE TYPE:CHD6               UNIT 1013   STATUS:OLD                 
 FORMAT:FORMATTED              ACCESS:SEQUENTIAL          
 ACTION:READ                

 # File generated by Flopy version 3.9.1 on 04/08/2026 at 09:09:29.

 READING SIMULATION OPTIONS
    MAXIMUM NUMBER OF ERRORS THAT WILL BE STORED IS 1000
 END OF SIMULATION OPTIONS

 READING SIMULATION TIMING

 TDIS -- TEMPORAL DISCRETIZATION PACKAGE,
 VERSION 1 : 11/13/2014 - INPUT READ FROM MEMPATH: __INPUT__/SIM/TDIS                                
 PROCESSING TDIS OPTIONS
    SIMULATION TIME UNIT IS SECONDS
 END OF TDIS OPTIONS
 PROCESSING TDIS DIMENSIONS
    1 STRESS PERIOD(S) IN SIMULATION
 END OF TDIS DIMENSIONS
 PROCESSING TDIS PERIODDATA


 STRESS PERIOD     LENGTH       TIME STEPS     MULTIPLIER FOR DELT
 ----------------------------------------------------------------------------
        1         1.000000          1                    1.000
 END OF TDIS PERIODDATA
 END OF SIMULATION TIMING

 READING SIMULATION MODELS
    GWF6 model 1 will be created
 END OF SIMULATION MODELS

 READING SIMULATION EXCHANGES
 END OF SIMULATION EXCHANGES

 READING SOLUTIONGROUP

 Creating solution: SLN_1           

 OPENED DISU_model.ims
 FILE TYPE:IMS   UNIT 1015   STATUS:OLD                 
 FORMAT:FORMATTED              ACCESS:SEQUENTIAL          
 ACTION:READ                

 END OF SOLUTIONGROUP

PROCESSING MODEL CONNECTIONS

 IMS -- ITERATIVE MODEL SOLUTION PACKAGE, VERSION 6, 4/28/2017
         INPUT READ FROM UNIT 1015
 # File generated by Flopy version 3.9.1 on 04/08/2026 at 09:09:09.

 PROCESSING IMS OPTIONS
 COMPLEX OPTION:
 DEFAULT SOLVER INPUT VALUES REFLECT STRONGLY NONLINEAR MODEL
 END OF IMS OPTIONS

 PROCESSING IMS NONLINEAR
 END OF IMS NONLINEAR DATA
 **UNDER-RELAXATION WILL BE USED***
 

 PROCESSING LINEAR DATA
 END OF LINEAR DATA
 ***IMS LINEAR SOLVER WILL BE USED***

 IMSLINEAR -- UNSTRUCTURED LINEAR SOLUTION PACKAGE, VERSION 8, 04/28/2017
 An asymmetric matrix will be solved

 OUTER ITERATION CONVERGENCE CRITERION    (DVCLOSE) =    0.100000E-02
 MAXIMUM NUMBER OF OUTER ITERATIONS        (MXITER) = 300
 SOLVER PRINTOUT INDEX                     (IPRIMS) = 1
 NONLINEAR ITERATION METHOD            (NONLINMETH) = 3
 LINEAR SOLUTION METHOD                   (LINMETH) = 1
 UNDER-RELAXATION WEIGHT REDUCTION FACTOR   (THETA) =    0.800000E+00
 UNDER-RELAXATION WEIGHT INCREASE INCREMENT (KAPPA) =    0.100000E-03
 UNDER-RELAXATION PREVIOUS HISTORY FACTOR   (GAMMA) =    0.000000E+00
 UNDER-RELAXATION MOMENTUM TERM         (AMOMENTUM) =    0.000000E+00
 MAXIMUM NUMBER OF BACKTRACKS            (NUMTRACK) = 20
 BACKTRACKING TOLERANCE FACTOR               (BTOL) =    0.105000E+01
 BACKTRACKING REDUCTION FACTOR             (BREDUC) =    0.100000E+00
 BACKTRACKING RESIDUAL LIMIT              (RES_LIM) =    0.200000E-02

       SOLUTION BY THE BICONJUGATE-GRADIENT STABILIZED METHOD
 ------------------------------------------------------------------
 MAXIMUM OF 300 CALLS OF SOLUTION ROUTINE
 MAXIMUM OF 1200 INTERNAL ITERATIONS PER CALL TO SOLUTION ROUTINE
 LINEAR ACCELERATION METHOD            = BCGS      
 MATRIX PRECONDITIONING TYPE           = MOD. INCOMPLETE LUT 
 MATRIX SCALING APPROACH               = NO SCALING          
 MATRIX REORDERING APPROACH            = ORIGINAL ORDERING        
 NUMBER OF ORTHOGONALIZATIONS          = 2
 HEAD CHANGE CRITERION FOR CLOSURE     =    0.10000E-05
 RESIDUAL CHANGE CRITERION FOR CLOSURE =    0.10000E+00
 RESIDUAL CONVERGENCE OPTION           = 0
 RESIDUAL CONVERGENCE NORM             = INFINITY NORM   
 RELAXATION FACTOR                     =    0.92000E+00
 NUMBER OF LEVELS                      =              5
 DROP TOLERANCE                        =    0.10000E-03


 
    Solving:  Stress period:     1    Time step:     1
 
1
 STRESS PERIOD NO. 1, LENGTH =   1.000000    
 ------------------------------------------
 NUMBER OF TIME STEPS = 1
 MULTIPLIER FOR DELT =     1.000
 INITIAL TIME STEP SIZE =   1.000000    

 SLN_1 OUTER ITERATION SUMMARY
 ----------------------------------------------------------------------------------------------------------------------------------------------------------------
                                OUTER      INNER  BACKTRACK  BACKTRACK        INCOMING        OUTGOING                    STEP   MAXIMUM CHANGE MODEL-(CELLID) OR
 OUTER ITERATION STEP       ITERATION  ITERATION       FLAG ITERATIONS        RESIDUAL        RESIDUAL  MAXIMUM CHANGE SUCCESS             MODEL-PACKAGE-(NUMBER)
 ----------------------------------------------------------------------------------------------------------------------------------------------------------------
 Backtracking                       1                     0          0       6146132.4       6146132.4                       *                                   
 Model                              1        162                                                             274.68406                              1_GWF-(91520)
 Backtracking                       2                     0          0      0.24011163      0.24011163                       *                                   
 Model                              2         82                                                           -0.18106642                             1_GWF-(119426)
 Backtracking                       3                     4          2       56.905067      0.61394012                                                           
 Model                              3         99                                                           -0.17957031                             1_GWF-(119426)
 Backtracking                       4                     4          2       57.026076       1.1548977                                                           
 Model                              4         90                                                           -0.17813201                             1_GWF-(119426)
 Backtracking                       5                     4          2       56.528241       1.7006801                                                           
 Model                              5         83                                                           -0.17722375                             1_GWF-(119426)
 Backtracking                       6                     4          2       56.387657       2.2435672                                                           
 Model                              6         89                                                           -0.17533625                             1_GWF-(119426)
 Backtracking                       7                     4          2       55.594288       2.7747182                                                           
 Model                              7        121                                                           -0.17364346                             1_GWF-(119426)
 Backtracking                       8                     4          2       55.057337       3.2959886                                                           
 Model                              8         66                                                           -0.17170900                             1_GWF-(119426)
 Backtracking                       9                     4          2       54.209949       3.8040303                                                           
 Model                              9         83                                                           -0.17166647                             1_GWF-(119426)
 Backtracking                      10                     4          2       54.544837       4.3106125                                                           
 Model                             10         82                                                           -0.17036280                             1_GWF-(119426)
 Backtracking                      11                     4          2       54.029346       4.8071650                                                           
 Model                             11         92                                                           -0.16839078                             1_GWF-(119426)
 Backtracking                      12                     4          2       53.264278       5.2912370                                                           
 Model                             12         87                                                           -0.16711207                             1_GWF-(119426)
 Backtracking                      13                     4          2       52.799834       5.7659180                                                           
 Model                             13         93                                                           -0.16572999                             1_GWF-(119426)
 Backtracking                      14                     4          2       52.361529       6.2315404                                                           
 Model                             14         91                                                           -0.16429939                             1_GWF-(119426)
 Backtracking                      15                     4          2       51.918893       6.6881345                                                           
 Model                             15         91                                                           -0.16308774                             1_GWF-(119426)
 Backtracking                      16                     4          2       51.447360       7.1354892                                                           
 Model                             16         92                                                           -0.16181716                             1_GWF-(119426)
 Backtracking                      17                     4          2       51.029810       7.5742285                                                           
 Model                             17         96                                                           -0.16047103                             1_GWF-(119426)
 Backtracking                      18                     4          2       50.605626       8.0043662                                                           
 Model                             18        104                                                           -0.15916257                             1_GWF-(119426)
 Backtracking                      19                     4          2       50.185711       8.4260257                                                           
 Model                             19         92                                                           -0.15793433                             1_GWF-(119426)
 Backtracking                      20                     1          2       49.740316       8.8390329                                                           
 Model                             20         93                                                           -0.15658657                             1_GWF-(119426)
 Backtracking                      21                     1          2       49.321873       9.2437414                                                           
 Model                             21         96                                                           -0.15537462                             1_GWF-(119426)
 Backtracking                      22                     1          2       48.894352       9.6401405                                                           
 Model                             22         88                                                           -0.15413703                             1_GWF-(119426)
 Backtracking                      23                     1          2       48.469993       10.028343                                                           
 Model                             23         76                                                           -0.15270260                             1_GWF-(119426)
 Backtracking                      24                     1          2       47.900122       10.406974                                                           
 Model                             24         64                                                           -0.15102599                             1_GWF-(119426)
 Backtracking                      25                     1          2       47.242733       10.775250                                                           
 Model                             25         92                                                           -0.15042298                             1_GWF-(119426)
 Backtracking                      26                     1          2       47.255217       11.139979                                                           
 Model                             26         98                                                           -0.14918685                             1_GWF-(119426)
 Backtracking                      27                     1          2       46.847449       11.496989                                                           
 Model                             27        114                                                           -0.14778447                             1_GWF-(119426)
 Backtracking                      28                     1          2       46.394948       11.845909                                                           
 Model                             28         86                                                           -0.14697761                             1_GWF-(119426)
 Backtracking                      29                     1          2       46.121203       12.188608                                                           
 Model                             29         95                                                           -0.14559261                             1_GWF-(119426)
 Backtracking                      30                     1          2       45.667951       12.523352                                                           
 Model                             30         93                                                           -0.14446516                             1_GWF-(119426)
 Backtracking                      31                     1          2       45.267197       12.850745                                                           
 Model                             31         73                                                           -0.14269168                             1_GWF-(119426)
 Backtracking                      32                     1          2       44.377403       13.165962                                                           
 Model                             32         93                                                           -0.14215452                             1_GWF-(119426)
 Backtracking                      33                     1          2       44.505552       13.479318                                                           
 Model                             33         92                                                           -0.14106488                             1_GWF-(119426)
 Backtracking                      34                     1          2       44.118475       13.785674                                                           
 Model                             34         94                                                           -0.13990272                             1_GWF-(119426)
 Backtracking                      35                     1          2       43.744439       14.085227                                                           
 Model                             35         70                                                           -0.13812609                             1_GWF-(119426)
 Backtracking                      36                     1          2       43.046542       14.374807                                                           
 Model                             36         93                                                           -0.13764302                             1_GWF-(119426)
 Backtracking                      37                     1          2       43.004978       14.661079                                                           
 Model                             37         97                                                           -0.13652254                             1_GWF-(119426)
 Backtracking                      38                     1          2       42.628773       14.940728                                                           
 Model                             38        112                                                           -0.13522026                             1_GWF-(119426)
 Backtracking                      39                     1          2       42.221494       15.213510                                                           
 Model                             39         90                                                           -0.13431786                             1_GWF-(119426)
 Backtracking                      40                     1          2       41.906472       15.480415                                                           
 Model                             40         91                                                           -0.13320740                             1_GWF-(119426)
 Backtracking                      41                     1          2       41.559778       15.741186                                                           
 Model                             41         71                                                           -0.13158748                             1_GWF-(119426)
 Backtracking                      42                     1          2       40.904454       15.992795                                                           
 Model                             42         94                                                           -0.13113777                             1_GWF-(119426)
 Backtracking                      43                     1          2       40.844609       16.241293                                                           
 Model                             43         92                                                           -0.13002890                             1_GWF-(119426)
 Backtracking                      44                     1          2       40.502246       16.483884                                                           
 Model                             44         70                                                           -0.12842571                             1_GWF-(119426)
 Backtracking                      45                     1          2       39.729812       16.716319                                                           
 Model                             45         83                                                           -0.12849578                             1_GWF-(119426)
 Backtracking                      46                     1          2       40.033033       16.949468                                                           
 Model                             46         94                                                           -0.12697053                             1_GWF-(119426)
 Backtracking                      47                     1          2       39.468064       17.174638                                                           
 Model                             47         92                                                           -0.12592711                             1_GWF-(119426)
 Backtracking                      48                     1          2       39.129804       17.394174                                                           
 Model                             48        112                                                           -0.12470945                             1_GWF-(119426)
 Backtracking                      49                     1          2       38.750329       17.607721                                                           
 Model                             49         89                                                           -0.12392814                             1_GWF-(119426)
 Backtracking                      50                     4          1       38.460762       19.692913                                                           
 Model                             50        105                                                           -0.11350776                             1_GWF-(119426)
 Backtracking                      51                     4          1       35.231508       21.246688                                                           
 Model                             51         90                                                           -0.10478856                             1_GWF-(119426)
 Backtracking                      52                     4          1       32.483102       22.370283                                                           
 Model                             52         90                                                       -9.63105441E-02                             1_GWF-(119426)
 Backtracking                      53                     1          1       29.852164       23.118440                                                           
 Model                             53         71                                                       -8.81411861E-02                             1_GWF-(119426)
 Backtracking                      54                     1          1       27.241169       23.530676                                                           
 Model                             54         91                                                       -8.14505488E-02                             1_GWF-(119426)
 Backtracking                      55                     1          1       25.217068       23.699298                                                           
 Model                             55         86                                                       -7.48415234E-02                             1_GWF-(119426)
 Backtracking                      56                     0          0       23.177314       23.177314                       *                                   
 Model                             56         55                                                       -1.40861113E-02                             1_GWF-(119426)
 Backtracking                      57                     0          0       4.5190837       4.5190837                       *                                   
 Model                             57         72                                                       -3.01871165E-03                             1_GWF-(119426)
 Backtracking                      58                     0          0      0.78096498      0.78096498                       *                                   
 Model                             58          3                                                        5.94695001E-05       *                      1_GWF-(26316)
 ----------------------------------------------------------------------------------------------------------------------------------------------------------------


 58 CALLS TO NUMERICAL SOLUTION IN TIME STEP 1 STRESS PERIOD 1
 5155 TOTAL ITERATIONS

 MEMORY MANAGER TOTAL STORAGE BY DATA TYPE, IN MEGABYTES
 -------------------------------
                    ALLOCATED   
 DATA TYPE           MEMORY     
 -------------------------------
 Character        1.04880000E-02
 Logical          4.80000000E-05
 Integer          55.166604     
 Real             134.34198     
 -------------------------------
 Total            189.51912     
 Virtual          0.0000000     
 -------------------------------


 
 Run end date and time (yyyy/mm/dd hh:mm:ss): 2026/04/08  9:10:10
 Elapsed run time: 37.661 Seconds
 Normal termination of simulation.
