                                   MODFLOW 6
                U.S. GEOLOGICAL SURVEY MODULAR HYDROLOGIC MODEL
                            VERSION 6.6.0 12/20/2024

   MODFLOW 6 compiled Dec 31 2024 17:10:16 with Intel(R) Fortran Intel(R) 64
   Compiler Classic for applications running on Intel(R) 64, Version 2021.7.0
                             Build 20220726_000000

This software has been approved for release by the U.S. Geological 
Survey (USGS). Although the software has been subjected to rigorous 
review, the USGS reserves the right to update the software as needed 
pursuant to further analysis and review. No warranty, expressed or 
implied, is made by the USGS or the U.S. Government as to the 
functionality of the software and related material nor shall the 
fact of release constitute any such warranty. Furthermore, the 
software is released on condition that neither the USGS nor the U.S. 
Government shall be held liable for any damages resulting from its 
authorized or unauthorized use. Also refer to the USGS Water 
Resources Software User Rights Notice for complete use, copyright, 
and distribution information.


As a work of the United States Government, this USGS product is 
in the public domain within the United States. You can copy, 
modify, distribute, and perform the work, even for commercial 
purposes, all without asking permission. Additionally, USGS 
waives copyright and related rights in the work worldwide 
through CC0 1.0 Universal Public Domain Dedication 
(https://creativecommons.org/publicdomain/zero/1.0/).

The following GNU Lesser General Public License (LGPL) libraries
are used in this USGS product:

    SPARSKIT version 2.0
      ilut, luson, and qsplit 
      (https://www-users.cse.umn.edu/~saad/software/SPARSKIT/)

    RCM - Reverse Cuthill McKee Ordering
      (https://people.math.sc.edu/Burkardt/f_src/rcm/rcm.html)

    BLAS - Basic Linear Algebra Subprograms Level 1
      (https://people.math.sc.edu/Burkardt/f_src/blas1_d/blas1_d.html)

    SPARSEKIT - Sparse Matrix Utility Package
      amux, dperm, dvperm, rperm, and cperm
      (https://people.sc.fsu.edu/~jburkardt/f77_src/sparsekit/sparsekit.html)

The following BSD-3 License libraries are used in this USGS product:

    Modern Fortran DAG Library
      Copyright (c) 2018, Jacob Williams
      All rights reserved.
      (https://github.com/jacobwilliams/daglib)

MODFLOW 6 compiler options: /O2 /heap-arrays:0 /fpe:0 /traceback /nologo /fpp
/c /module:win64\mod_mf6\ /object:win64\obj_mf6\

System command used to initiate simulation:
mf6

MODFLOW was compiled using uniform precision.

Real Variables
  KIND: 8
  TINY (smallest non-zero value):    2.225074-308
  HUGE (largest value):    1.797693+308
  PRECISION: 15
  SIZE IN BITS: 64

Integer Variables
  KIND: 4
  HUGE (largest value): 2147483647
  SIZE IN BITS: 32

Long Integer Variables
  KIND: 8
  HUGE (largest value): 9223372036854775807
  SIZE IN BITS: 64

Logical Variables
  KIND: 4
  SIZE IN BITS: 32
 

 OPENED mfsim.nam
 FILE TYPE:NAM6               UNIT 1001   STATUS:OLD                 
 FORMAT:FORMATTED              ACCESS:SEQUENTIAL          
 ACTION:READ                

 # File generated by Flopy version 3.9.1 on 01/23/2026 at 22:23:39.

 OPENED DISU_model.tdis
 FILE TYPE:TDIS6              UNIT 1002   STATUS:OLD                 
 FORMAT:FORMATTED              ACCESS:SEQUENTIAL          
 ACTION:READ                

 # File generated by Flopy version 3.9.1 on 01/23/2026 at 22:23:39.

 OPENED DISU_model.nam
 FILE TYPE:GWF6               UNIT 1003   STATUS:OLD                 
 FORMAT:FORMATTED              ACCESS:SEQUENTIAL          
 ACTION:READ                

 # File generated by Flopy version 3.9.1 on 01/23/2026 at 22:23:39.

 OPENED DISU_model.disu
 FILE TYPE:DISU6              UNIT 1004   STATUS:OLD                 
 FORMAT:FORMATTED              ACCESS:SEQUENTIAL          
 ACTION:READ                

 # File generated by Flopy version 3.9.1 on 01/23/2026 at 22:23:39.

 OPENED DISU_model.npf
 FILE TYPE:NPF6               UNIT 1005   STATUS:OLD                 
 FORMAT:FORMATTED              ACCESS:SEQUENTIAL          
 ACTION:READ                

 # File generated by Flopy version 3.9.1 on 01/23/2026 at 22:23:54.

 OPENED DISU_model.ic
 FILE TYPE:IC6                UNIT 1006   STATUS:OLD                 
 FORMAT:FORMATTED              ACCESS:SEQUENTIAL          
 ACTION:READ                

 # File generated by Flopy version 3.9.1 on 01/23/2026 at 22:23:54.

 OPENED DISU_model.oc
 FILE TYPE:OC6       UNIT 1007   STATUS:OLD                 
 FORMAT:FORMATTED              ACCESS:SEQUENTIAL          
 ACTION:READ                


 OPENED DISU_model.wel
 FILE TYPE:WEL6               UNIT 1008   STATUS:OLD                 
 FORMAT:FORMATTED              ACCESS:SEQUENTIAL          
 ACTION:READ                

 # File generated by Flopy version 3.9.1 on 01/23/2026 at 22:23:55.

 OPENED quadtree_caseD_1.rch
 FILE TYPE:RCH6               UNIT 1010   STATUS:OLD                 
 FORMAT:FORMATTED              ACCESS:SEQUENTIAL          
 ACTION:READ                

 # File generated by Flopy version 3.9.1 on 01/23/2026 at 22:23:55.

 OPENED DISU_model.evt
 FILE TYPE:EVT6               UNIT 1012   STATUS:OLD                 
 FORMAT:FORMATTED              ACCESS:SEQUENTIAL          
 ACTION:READ                

 # File generated by Flopy version 3.9.1 on 01/23/2026 at 22:23:55.

 OPENED DISU_model.chd
 FILE TYPE:CHD6               UNIT 1013   STATUS:OLD                 
 FORMAT:FORMATTED              ACCESS:SEQUENTIAL          
 ACTION:READ                

 # File generated by Flopy version 3.9.1 on 01/23/2026 at 22:23:54.

 READING SIMULATION OPTIONS
    MAXIMUM NUMBER OF ERRORS THAT WILL BE STORED IS 1000
 END OF SIMULATION OPTIONS

 READING SIMULATION TIMING

 TDIS -- TEMPORAL DISCRETIZATION PACKAGE,
 VERSION 1 : 11/13/2014 - INPUT READ FROM MEMPATH: __INPUT__/SIM/TDIS                                
 PROCESSING TDIS OPTIONS
    SIMULATION TIME UNIT IS SECONDS
 END OF TDIS OPTIONS
 PROCESSING TDIS DIMENSIONS
    1 STRESS PERIOD(S) IN SIMULATION
 END OF TDIS DIMENSIONS
 PROCESSING TDIS PERIODDATA


 STRESS PERIOD     LENGTH       TIME STEPS     MULTIPLIER FOR DELT
 ----------------------------------------------------------------------------
        1         1.000000          1                    1.000
 END OF TDIS PERIODDATA
 END OF SIMULATION TIMING

 READING SIMULATION MODELS
    GWF6 model 1 will be created
 END OF SIMULATION MODELS

 READING SIMULATION EXCHANGES
 END OF SIMULATION EXCHANGES

 READING SOLUTIONGROUP

 Creating solution: SLN_1           

 OPENED DISU_model.ims
 FILE TYPE:IMS   UNIT 1015   STATUS:OLD                 
 FORMAT:FORMATTED              ACCESS:SEQUENTIAL          
 ACTION:READ                

 END OF SOLUTIONGROUP

PROCESSING MODEL CONNECTIONS

 IMS -- ITERATIVE MODEL SOLUTION PACKAGE, VERSION 6, 4/28/2017
         INPUT READ FROM UNIT 1015
 # File generated by Flopy version 3.9.1 on 01/23/2026 at 22:23:39.

 PROCESSING IMS OPTIONS
 COMPLEX OPTION:
 DEFAULT SOLVER INPUT VALUES REFLECT STRONGLY NONLINEAR MODEL
 END OF IMS OPTIONS

 PROCESSING IMS NONLINEAR
 END OF IMS NONLINEAR DATA
 **UNDER-RELAXATION WILL BE USED***
 

 PROCESSING LINEAR DATA
 END OF LINEAR DATA
 ***IMS LINEAR SOLVER WILL BE USED***

 IMSLINEAR -- UNSTRUCTURED LINEAR SOLUTION PACKAGE, VERSION 8, 04/28/2017
 An asymmetric matrix will be solved

 OUTER ITERATION CONVERGENCE CRITERION    (DVCLOSE) =    0.100000E-02
 MAXIMUM NUMBER OF OUTER ITERATIONS        (MXITER) = 300
 SOLVER PRINTOUT INDEX                     (IPRIMS) = 1
 NONLINEAR ITERATION METHOD            (NONLINMETH) = 3
 LINEAR SOLUTION METHOD                   (LINMETH) = 1
 UNDER-RELAXATION WEIGHT REDUCTION FACTOR   (THETA) =    0.800000E+00
 UNDER-RELAXATION WEIGHT INCREASE INCREMENT (KAPPA) =    0.100000E-03
 UNDER-RELAXATION PREVIOUS HISTORY FACTOR   (GAMMA) =    0.000000E+00
 UNDER-RELAXATION MOMENTUM TERM         (AMOMENTUM) =    0.000000E+00
 MAXIMUM NUMBER OF BACKTRACKS            (NUMTRACK) = 20
 BACKTRACKING TOLERANCE FACTOR               (BTOL) =    0.105000E+01
 BACKTRACKING REDUCTION FACTOR             (BREDUC) =    0.100000E+00
 BACKTRACKING RESIDUAL LIMIT              (RES_LIM) =    0.200000E-02

       SOLUTION BY THE BICONJUGATE-GRADIENT STABILIZED METHOD
 ------------------------------------------------------------------
 MAXIMUM OF 300 CALLS OF SOLUTION ROUTINE
 MAXIMUM OF 1200 INTERNAL ITERATIONS PER CALL TO SOLUTION ROUTINE
 LINEAR ACCELERATION METHOD            = BCGS      
 MATRIX PRECONDITIONING TYPE           = MOD. INCOMPLETE LUT 
 MATRIX SCALING APPROACH               = NO SCALING          
 MATRIX REORDERING APPROACH            = ORIGINAL ORDERING        
 NUMBER OF ORTHOGONALIZATIONS          = 2
 HEAD CHANGE CRITERION FOR CLOSURE     =    0.10000E-05
 RESIDUAL CHANGE CRITERION FOR CLOSURE =    0.10000E+00
 RESIDUAL CONVERGENCE OPTION           = 0
 RESIDUAL CONVERGENCE NORM             = INFINITY NORM   
 RELAXATION FACTOR                     =    0.92000E+00
 NUMBER OF LEVELS                      =              5
 DROP TOLERANCE                        =    0.10000E-03


 
    Solving:  Stress period:     1    Time step:     1
 
1
 STRESS PERIOD NO. 1, LENGTH =   1.000000    
 ------------------------------------------
 NUMBER OF TIME STEPS = 1
 MULTIPLIER FOR DELT =     1.000
 INITIAL TIME STEP SIZE =   1.000000    

 SLN_1 OUTER ITERATION SUMMARY
 ----------------------------------------------------------------------------------------------------------------------------------------------------------------
                                OUTER      INNER  BACKTRACK  BACKTRACK        INCOMING        OUTGOING                    STEP   MAXIMUM CHANGE MODEL-(CELLID) OR
 OUTER ITERATION STEP       ITERATION  ITERATION       FLAG ITERATIONS        RESIDUAL        RESIDUAL  MAXIMUM CHANGE SUCCESS             MODEL-PACKAGE-(NUMBER)
 ----------------------------------------------------------------------------------------------------------------------------------------------------------------
 Backtracking                       1                     0          0       2173686.4       2173686.4                       *                                   
 Model                              1        150                                                             252.44771                              1_GWF-(69705)
 Backtracking                       2                     0          0       1.1330092       1.1330092                       *                                   
 Model                              2        101                                                            -1.6814300                              1_GWF-(84301)
 Backtracking                       3                     1          3       51.854318       1.1329203                                                           
 Model                              3        102                                                            -1.6801330                              1_GWF-(84301)
 Backtracking                       4                     1          3       51.697122       1.1351865                                                           
 Model                              4         87                                                            -1.6786701                              1_GWF-(84301)
 Backtracking                       5                     1          3       51.629895       1.1397774                                                           
 Model                              5         86                                                            -1.6772271                              1_GWF-(84301)
 Backtracking                       6                     1          3       51.573186       1.1466510                                                           
 Model                              6         86                                                            -1.6759203                              1_GWF-(84301)
 Backtracking                       7                     1          3       51.504699       1.1557494                                                           
 Model                              7         91                                                            -1.6747849                              1_GWF-(84301)
 Backtracking                       8                     1          3       51.424400       1.1670017                                                           
 Model                              8         95                                                            -1.6734018                              1_GWF-(84301)
 Backtracking                       9                     1          3       51.356647       1.1803331                                                           
 Model                              9         92                                                            -1.6718770                              1_GWF-(84301)
 Backtracking                      10                     1          3       51.299485       1.1956625                                                           
 Model                             10         89                                                            -1.6707782                              1_GWF-(84301)
 Backtracking                      11                     1          3       51.220736       1.2128922                                                           
 Model                             11         85                                                            -1.6694643                              1_GWF-(84301)
 Backtracking                      12                     1          3       51.159937       1.2319341                                                           
 Model                             12         92                                                            -1.6680949                              1_GWF-(84301)
 Backtracking                      13                     1          3       51.091360       1.2526884                                                           
 Model                             13         99                                                            -1.6667912                              1_GWF-(84301)
 Backtracking                      14                     1          3       51.022809       1.2750575                                                           
 Model                             14        105                                                            -1.6654288                              1_GWF-(84301)
 Backtracking                      15                     1          3       50.954610       1.2989443                                                           
 Model                             15         92                                                            -1.6642872                              1_GWF-(84301)
 Backtracking                      16                     1          3       50.888918       1.3242545                                                           
 Model                             16        107                                                            -1.6627634                              1_GWF-(84301)
 Backtracking                      17                     1          3       50.822575       1.3508949                                                           
 Model                             17        102                                                            -1.6614138                              1_GWF-(84301)
 Backtracking                      18                     1          3       50.762101       1.3787792                                                           
 Model                             18         94                                                            -1.6600381                              1_GWF-(84301)
 Backtracking                      19                     1          3       50.703295       1.4078228                                                           
 Model                             19         95                                                            -1.6589874                              1_GWF-(84301)
 Backtracking                      20                     1          3       50.630434       1.4379352                                                           
 Model                             20        110                                                            -1.6574411                              1_GWF-(84301)
 Backtracking                      21                     1          3       50.558813       1.4690392                                                           
 Model                             21        119                                                            -1.6561053                              1_GWF-(84301)
 Backtracking                      22                     1          3       50.492547       1.5010647                                                           
 Model                             22        114                                                            -1.6547921                              1_GWF-(84301)
 Backtracking                      23                     1          3       50.426728       1.5339432                                                           
 Model                             23        118                                                            -1.6534481                              1_GWF-(84301)
 Backtracking                      24                     1          3       50.360597       1.5676100                                                           
 Model                             24        133                                                            -1.6521279                              1_GWF-(84301)
 Backtracking                      25                     1          3       50.294371       1.6020047                                                           
 Model                             25        111                                                            -1.6509012                              1_GWF-(84301)
 Backtracking                      26                     1          3       50.231433       1.6370736                                                           
 Model                             26         96                                                            -1.6494084                              1_GWF-(84301)
 Backtracking                      27                     1          3       50.156287       1.6727552                                                           
 Model                             27         99                                                            -1.6481438                              1_GWF-(84301)
 Backtracking                      28                     1          3       50.094953       1.7090111                                                           
 Model                             28        111                                                            -1.6469466                              1_GWF-(84301)
 Backtracking                      29                     1          3       50.025782       1.7457904                                                           
 Model                             29        105                                                            -1.6454895                              1_GWF-(84301)
 Backtracking                      30                     1          3       49.963401       1.7830564                                                           
 Model                             30         90                                                            -1.6443079                              1_GWF-(84301)
 Backtracking                      31                     1          3       49.907292       1.8207754                                                           
 Model                             31        106                                                            -1.6428597                              1_GWF-(84301)
 Backtracking                      32                     1          3       49.833318       1.8588973                                                           
 Model                             32        108                                                            -1.6415455                              1_GWF-(84301)
 Backtracking                      33                     1          3       49.767919       1.8973956                                                           
 Model                             33        108                                                            -1.6402117                              1_GWF-(84301)
 Backtracking                      34                     1          3       49.703721       1.9362403                                                           
 Model                             34        110                                                            -1.6389043                              1_GWF-(84301)
 Backtracking                      35                     1          3       49.638302       1.9754019                                                           
 Model                             35        106                                                            -1.6376082                              1_GWF-(84301)
 Backtracking                      36                     1          3       49.573019       2.0148540                                                           
 Model                             36        103                                                            -1.6362789                              1_GWF-(84301)
 Backtracking                      37                     1          3       49.507903       2.0545721                                                           
 Model                             37         90                                                            -1.6350356                              1_GWF-(84301)
 Backtracking                      38                     1          3       49.460492       2.0945486                                                           
 Model                             38        116                                                            -1.6336595                              1_GWF-(84301)
 Backtracking                      39                     1          3       49.378948       2.1347333                                                           
 Model                             39        120                                                            -1.6323426                              1_GWF-(84301)
 Backtracking                      40                     1          3       49.314878       2.1751215                                                           
 Model                             40        114                                                            -1.6310165                              1_GWF-(84301)
 Backtracking                      41                     1          3       49.249531       2.2156937                                                           
 Model                             41        111                                                            -1.6297057                              1_GWF-(84301)
 Backtracking                      42                     1          3       49.184619       2.2564335                                                           
 Model                             42        111                                                            -1.6284132                              1_GWF-(84301)
 Backtracking                      43                     1          3       49.118804       2.2973243                                                           
 Model                             43         87                                                            -1.6273178                              1_GWF-(84301)
 Backtracking                      44                     1          3       49.072969       2.3383691                                                           
 Model                             44        105                                                            -1.6257992                              1_GWF-(84301)
 Backtracking                      45                     1          3       48.992678       2.3795239                                                           
 Model                             45         87                                                            -1.6246544                              1_GWF-(84301)
 Backtracking                      46                     1          3       48.946575       2.4208063                                                           
 Model                             46        105                                                            -1.6231688                              1_GWF-(84301)
 Backtracking                      47                     1          3       48.862391       2.4621705                                                           
 Model                             47         86                                                            -1.6221160                              1_GWF-(84301)
 Backtracking                      48                     1          3       48.817352       2.5036406                                                           
 Model                             48         90                                                            -1.6208113                              1_GWF-(84301)
 Backtracking                      49                     1          3       48.754751       2.5451904                                                           
 Model                             49        112                                                            -1.6192517                              1_GWF-(84301)
 Backtracking                      50                     1          3       48.669954       2.5867902                                                           
 Model                             50        110                                                            -1.6179639                              1_GWF-(84301)
 Backtracking                      51                     1          3       48.605066       2.6284489                                                           
 Model                             51        108                                                            -1.6166507                              1_GWF-(84301)
 Backtracking                      52                     1          3       48.541086       2.6701590                                                           
 Model                             52        114                                                            -1.6153491                              1_GWF-(84301)
 Backtracking                      53                     1          3       48.477966       2.7119132                                                           
 Model                             53         83                                                            -1.6143378                              1_GWF-(84301)
 Backtracking                      54                     1          3       48.435710       2.7537235                                                           
 Model                             54         83                                                            -1.6130868                              1_GWF-(84301)
 Backtracking                      55                     1          3       48.368983       2.7955605                                                           
 Model                             55         83                                                            -1.6115224                              1_GWF-(84301)
 Backtracking                      56                     1          3       48.313656       2.8374280                                                           
 Model                             56        103                                                            -1.6100483                              1_GWF-(84301)
 Backtracking                      57                     1          3       48.217183       2.8792820                                                           
 Model                             57         99                                                            -1.6087856                              1_GWF-(84301)
 Backtracking                      58                     1          3       48.153258       2.9211468                                                           
 Model                             58        110                                                            -1.6075504                              1_GWF-(84301)
 Backtracking                      59                     1          3       48.095638       2.9630229                                                           
 Model                             59        114                                                            -1.6062662                              1_GWF-(84301)
 Backtracking                      60                     1          3       48.032709       3.0049002                                                           
 Model                             60         97                                                            -1.6048998                              1_GWF-(84301)
 Backtracking                      61                     1          3       47.965341       3.0467697                                                           
 Model                             61         85                                                            -1.6041561                              1_GWF-(84301)
 Backtracking                      62                     1          3       47.927385       3.0886547                                                           
 Model                             62         88                                                            -1.6027123                              1_GWF-(84301)
 Backtracking                      63                     1          3       47.866047       3.1305289                                                           
 Model                             63         87                                                            -1.6011514                              1_GWF-(84301)
 Backtracking                      64                     1          3       47.810470       3.1723936                                                           
 Model                             64        116                                                            -1.5997999                              1_GWF-(84301)
 Backtracking                      65                     1          3       47.716363       3.2142090                                                           
 Model                             65         89                                                            -1.5987093                              1_GWF-(84301)
 Backtracking                      66                     1          3       47.681851       3.2560276                                                           
 Model                             66        106                                                            -1.5972115                              1_GWF-(84301)
 Backtracking                      67                     1          3       47.589272       3.2977912                                                           
 Model                             67        102                                                            -1.5958750                              1_GWF-(84301)
 Backtracking                      68                     1          3       47.523024       3.3395215                                                           
 Model                             68        103                                                            -1.5945799                              1_GWF-(84301)
 Backtracking                      69                     1          3       47.460474       3.3812189                                                           
 Model                             69        124                                                            -1.5933610                              1_GWF-(84301)
 Backtracking                      70                     1          3       47.401244       3.4228837                                                           
 Model                             70        108                                                            -1.5920661                              1_GWF-(84301)
 Backtracking                      71                     1          3       47.338179       3.4645096                                                           
 Model                             71         98                                                            -1.5907593                              1_GWF-(84301)
 Backtracking                      72                     1          3       47.272903       3.5060920                                                           
 Model                             72        100                                                            -1.5894605                              1_GWF-(84301)
 Backtracking                      73                     1          3       47.209101       3.5476297                                                           
 Model                             73         98                                                            -1.5882278                              1_GWF-(84301)
 Backtracking                      74                     1          3       47.150028       3.5891251                                                           
 Model                             74        108                                                            -1.5869319                              1_GWF-(84301)
 Backtracking                      75                     1          3       47.087915       3.6305730                                                           
 Model                             75        108                                                            -1.5856620                              1_GWF-(84301)
 Backtracking                      76                     1          3       47.025000       3.6719706                                                           
 Model                             76        101                                                            -1.5843173                              1_GWF-(84301)
 Backtracking                      77                     1          3       46.960536       3.7133145                                                           
 Model                             77         85                                                            -1.5833714                              1_GWF-(84301)
 Backtracking                      78                     1          3       46.932062       3.7546372                                                           
 Model                             78        110                                                            -1.5818149                              1_GWF-(84301)
 Backtracking                      79                     1          3       46.838497       3.7958747                                                           
 Model                             79        114                                                            -1.5805381                              1_GWF-(84301)
 Backtracking                      80                     1          3       46.776460       3.8370554                                                           
 Model                             80        102                                                            -1.5792664                              1_GWF-(84301)
 Backtracking                      81                     1          3       46.710438       3.8781739                                                           
 Model                             81        102                                                            -1.5780055                              1_GWF-(84301)
 Backtracking                      82                     1          3       46.648080       3.9192322                                                           
 Model                             82        108                                                            -1.5767113                              1_GWF-(84301)
 Backtracking                      83                     1          3       46.590316       3.9602333                                                           
 Model                             83        102                                                            -1.5755019                              1_GWF-(84301)
 Backtracking                      84                     1          3       46.523841       4.0011674                                                           
 Model                             84        114                                                            -1.5741760                              1_GWF-(84301)
 Backtracking                      85                     1          3       46.466588       4.0420421                                                           
 Model                             85         84                                                            -1.5734012                              1_GWF-(84301)
 Backtracking                      86                     1          3       46.432821       4.0828789                                                           
 Model                             86        108                                                            -1.5716112                              1_GWF-(84301)
 Backtracking                      87                     1          3       46.342725       4.1236220                                                           
 Model                             87        107                                                            -1.5703525                              1_GWF-(84301)
 Backtracking                      88                     1          3       46.281766       4.1642985                                                           
 Model                             88        110                                                            -1.5690759                              1_GWF-(84301)
 Backtracking                      89                     1          3       46.220117       4.2049068                                                           
 Model                             89        107                                                            -1.5678083                              1_GWF-(84301)
 Backtracking                      90                     1          3       46.158580       4.2454457                                                           
 Model                             90         96                                                            -1.5665421                              1_GWF-(84301)
 Backtracking                      91                     1          3       46.112824       4.2859296                                                           
 Model                             91        103                                                            -1.5652217                              1_GWF-(84301)
 Backtracking                      92                     1          3       46.033614       4.3263253                                                           
 Model                             92        113                                                            -1.5640115                              1_GWF-(84301)
 Backtracking                      93                     1          3       45.974711       4.3666514                                                           
 Model                             93        101                                                            -1.5628094                              1_GWF-(84301)
 Backtracking                      94                     1          3       45.909087       4.4069005                                                           
 Model                             94        109                                                            -1.5614744                              1_GWF-(84301)
 Backtracking                      95                     1          3       45.852033       4.4470802                                                           
 Model                             95        102                                                            -1.5601719                              1_GWF-(84301)
 Backtracking                      96                     1          3       45.789244       4.4871841                                                           
 Model                             96        106                                                            -1.5589540                              1_GWF-(84301)
 Backtracking                      97                     1          3       45.729645       4.5272146                                                           
 Model                             97        108                                                            -1.5576935                              1_GWF-(84301)
 Backtracking                      98                     1          3       45.669245       4.5671701                                                           
 Model                             98        109                                                            -1.5564249                              1_GWF-(84301)
 Backtracking                      99                     1          3       45.607910       4.6070491                                                           
 Model                             99        113                                                            -1.5551728                              1_GWF-(84301)
 Backtracking                     100                     1          3       45.547003       4.6468513                                                           
 Model                            100        109                                                            -1.5539070                              1_GWF-(84301)
 Backtracking                     101                     1          3       45.486263       4.6865763                                                           
 Model                            101        103                                                            -1.5526075                              1_GWF-(84301)
 Backtracking                     102                     1          3       45.424029       4.7262220                                                           
 Model                            102        109                                                            -1.5513915                              1_GWF-(84301)
 Backtracking                     103                     1          3       45.364978       4.7657909                                                           
 Model                            103        103                                                            -1.5501270                              1_GWF-(84301)
 Backtracking                     104                     1          3       45.301567       4.8052782                                                           
 Model                            104        100                                                            -1.5488637                              1_GWF-(84301)
 Backtracking                     105                     1          3       45.243115       4.8446883                                                           
 Model                            105        107                                                            -1.5476261                              1_GWF-(84301)
 Backtracking                     106                     1          3       45.183307       4.8840193                                                           
 Model                            106        110                                                            -1.5463689                              1_GWF-(84301)
 Backtracking                     107                     1          3       45.122866       4.9232701                                                           
 Model                            107         99                                                            -1.5450965                              1_GWF-(84301)
 Backtracking                     108                     1          3       45.062642       4.9624405                                                           
 Model                            108         86                                                            -1.5443374                              1_GWF-(84301)
 Backtracking                     109                     1          3       45.033699       5.0015606                                                           
 Model                            109        113                                                            -1.5425787                              1_GWF-(84301)
 Backtracking                     110                     1          3       44.940394       5.0405671                                                           
 Model                            110        104                                                            -1.5414225                              1_GWF-(84301)
 Backtracking                     111                     1          3       44.878407       5.0794901                                                           
 Model                            111         86                                                            -1.5406027                              1_GWF-(84301)
 Backtracking                     112                     1          3       44.853116       5.1183652                                                           
 Model                            112        114                                                            -1.5388611                              1_GWF-(84301)
 Backtracking                     113                     1          3       44.761654       5.1571273                                                           
 Model                            113        109                                                            -1.5376105                              1_GWF-(84301)
 Backtracking                     114                     1          3       44.701720       5.1958069                                                           
 Model                            114        102                                                            -1.5363323                              1_GWF-(84301)
 Backtracking                     115                     1          3       44.639790       5.2344017                                                           
 Model                            115        103                                                            -1.5351120                              1_GWF-(84301)
 Backtracking                     116                     1          3       44.579347       5.2729127                                                           
 Model                            116        111                                                            -1.5338734                              1_GWF-(84301)
 Backtracking                     117                     1          3       44.522309       5.3113432                                                           
 Model                            117         99                                                            -1.5326625                              1_GWF-(84301)
 Backtracking                     118                     1          3       44.464884       5.3496923                                                           
 Model                            118        105                                                            -1.5313367                              1_GWF-(84301)
 Backtracking                     119                     1          3       44.401184       5.3879536                                                           
 Model                            119        107                                                            -1.5301077                              1_GWF-(84301)
 Backtracking                     120                     1          3       44.341774       5.4261311                                                           
 Model                            120        101                                                            -1.5288894                              1_GWF-(84301)
 Backtracking                     121                     1          3       44.281112       5.4642233                                                           
 Model                            121        103                                                            -1.5276787                              1_GWF-(84301)
 Backtracking                     122                     1          3       44.220774       5.5022302                                                           
 Model                            122        108                                                            -1.5264222                              1_GWF-(84301)
 Backtracking                     123                     1          3       44.164653       5.5401558                                                           
 Model                            123        113                                                            -1.5251798                              1_GWF-(84301)
 Backtracking                     124                     1          3       44.105598       5.5779969                                                           
 Model                            124        113                                                            -1.5239417                              1_GWF-(84301)
 Backtracking                     125                     1          3       44.046329       5.6157532                                                           
 Model                            125        100                                                            -1.5226669                              1_GWF-(84301)
 Backtracking                     126                     1          3       43.992828       5.6534300                                                           
 Model                            126        112                                                            -1.5214695                              1_GWF-(84301)
 Backtracking                     127                     1          3       43.928077       5.6910162                                                           
 Model                            127        122                                                            -1.5202203                              1_GWF-(84301)
 Backtracking                     128                     1          3       43.868586       5.7285166                                                           
 Model                            128        111                                                            -1.5189946                              1_GWF-(84301)
 Backtracking                     129                     1          3       43.809846       5.7659319                                                           
 Model                            129        116                                                            -1.5177590                              1_GWF-(84301)
 Backtracking                     130                     1          3       43.750937       5.8032618                                                           
 Model                            130        100                                                            -1.5166462                              1_GWF-(84301)
 Backtracking                     131                     1          3       43.697863       5.8405118                                                           
 Model                            131        108                                                            -1.5152937                              1_GWF-(84301)
 Backtracking                     132                     1          3       43.633079       5.8776701                                                           
 Model                            132        102                                                            -1.5140334                              1_GWF-(84301)
 Backtracking                     133                     1          3       43.572467       5.9147409                                                           
 Model                            133        103                                                            -1.5128163                              1_GWF-(84301)
 Backtracking                     134                     1          3       43.513498       5.9517255                                                           
 Model                            134        113                                                            -1.5116013                              1_GWF-(84301)
 Backtracking                     135                     1          3       43.457050       5.9886263                                                           
 Model                            135        109                                                            -1.5103694                              1_GWF-(84301)
 Backtracking                     136                     1          3       43.398392       6.0254410                                                           
 Model                            136        111                                                            -1.5091413                              1_GWF-(84301)
 Backtracking                     137                     1          3       43.339872       6.0621696                                                           
 Model                            137        104                                                            -1.5078880                              1_GWF-(84301)
 Backtracking                     138                     1          3       43.279675       6.0988103                                                           
 Model                            138        102                                                            -1.5066593                              1_GWF-(84301)
 Backtracking                     139                     1          3       43.221269       6.1353649                                                           
 Model                            139        109                                                            -1.5054586                              1_GWF-(84301)
 Backtracking                     140                     1          3       43.164609       6.1718348                                                           
 Model                            140        106                                                            -1.5042066                              1_GWF-(84301)
 Backtracking                     141                     1          3       43.104955       6.2082171                                                           
 Model                            141        108                                                            -1.5030127                              1_GWF-(84301)
 Backtracking                     142                     1          3       43.048271       6.2445146                                                           
 Model                            142        106                                                            -1.5017936                              1_GWF-(84301)
 Backtracking                     143                     1          3       42.990443       6.2807261                                                           
 Model                            143        109                                                            -1.5005451                              1_GWF-(84301)
 Backtracking                     144                     1          3       42.930932       6.3168498                                                           
 Model                            144        103                                                            -1.4993229                              1_GWF-(84301)
 Backtracking                     145                     1          3       42.872306       6.3528865                                                           
 Model                            145        107                                                            -1.4981268                              1_GWF-(84301)
 Backtracking                     146                     1          3       42.815820       6.3888383                                                           
 Model                            146        107                                                            -1.4968762                              1_GWF-(84301)
 Backtracking                     147                     1          3       42.756412       6.4247022                                                           
 Model                            147         90                                                            -1.4953219                              1_GWF-(84301)
 Backtracking                     148                     1          3       42.683344       6.4604646                                                           
 Model                            148        109                                                            -1.4944626                              1_GWF-(84301)
 Backtracking                     149                     1          3       42.642484       6.4961573                                                           
 Model                            149        104                                                            -1.4932181                              1_GWF-(84301)
 Backtracking                     150                     1          3       42.583267       6.5317622                                                           
 Model                            150        111                                                            -1.4920334                              1_GWF-(84301)
 Backtracking                     151                     1          3       42.527159       6.5672822                                                           
 Model                            151        105                                                            -1.4908022                              1_GWF-(84301)
 Backtracking                     152                     1          3       42.467285       6.6027135                                                           
 Model                            152        104                                                            -1.4895830                              1_GWF-(84301)
 Backtracking                     153                     1          3       42.410151       6.6380589                                                           
 Model                            153        111                                                            -1.4883855                              1_GWF-(84301)
 Backtracking                     154                     1          3       42.354589       6.6733197                                                           
 Model                            154         80                                                            -1.4877798                              1_GWF-(84301)
 Backtracking                     155                     1          3       42.325260       6.7085220                                                           
 Model                            155         92                                                            -1.4859698                              1_GWF-(84301)
 Backtracking                     156                     1          3       42.232223       6.7436027                                                           
 Model                            156        114                                                            -1.4847514                              1_GWF-(84301)
 Backtracking                     157                     1          3       42.182525       6.7786045                                                           
 Model                            157        112                                                            -1.4836072                              1_GWF-(84301)
 Backtracking                     158                     1          3       42.122923       6.8135178                                                           
 Model                            158        105                                                            -1.4822787                              1_GWF-(84301)
 Backtracking                     159                     1          3       42.065471       6.8483445                                                           
 Model                            159         85                                                            -1.4816891                              1_GWF-(84301)
 Backtracking                     160                     1          3       42.044520       6.8831209                                                           
 Model                            160         89                                                            -1.4798890                              1_GWF-(84301)
 Backtracking                     161                     1          3       41.955060       6.9177789                                                           
 Model                            161        100                                                            -1.4786542                              1_GWF-(84301)
 Backtracking                     162                     1          2       41.893220       7.2636613                                                           
 Model                            162        106                                                            -1.4666394                              1_GWF-(84301)
 Backtracking                     163                     1          2       41.530448       7.6029078                                                           
 Model                            163        112                                                            -1.4546692                              1_GWF-(84301)
 Backtracking                     164                     1          2       41.171123       7.9355485                                                           
 Model                            164        107                                                            -1.4428130                              1_GWF-(84301)
 Backtracking                     165                     1          2       40.810202       8.2615767                                                           
 Model                            165        102                                                            -1.4310160                              1_GWF-(84301)
 Backtracking                     166                     1          2       40.455900       8.5810784                                                           
 Model                            166        106                                                            -1.4193205                              1_GWF-(84301)
 Backtracking                     167                     1          2       40.104080       8.8941055                                                           
 Model                            167         84                                                            -1.4082553                              1_GWF-(84301)
 Backtracking                     168                     1          2       39.793575       9.2011017                                                           
 Model                            168         91                                                            -1.3965463                              1_GWF-(84301)
 Backtracking                     169                     1          2       39.425957       9.5015350                                                           
 Model                            169        104                                                            -1.3848616                              1_GWF-(84301)
 Backtracking                     170                     1          2       39.065007       9.7955141                                                           
 Model                            170        120                                                            -1.3735315                              1_GWF-(84301)
 Backtracking                     171                     1          2       38.726943       10.083313                                                           
 Model                            171        111                                                            -1.3623010                              1_GWF-(84301)
 Backtracking                     172                     1          2       38.389053       10.364979                                                           
 Model                            172        101                                                            -1.3511421                              1_GWF-(84301)
 Backtracking                     173                     1          2       38.049728       10.640546                                                           
 Model                            173        103                                                            -1.3400211                              1_GWF-(84301)
 Backtracking                     174                     1          2       37.717896       10.910137                                                           
 Model                            174         85                                                            -1.3296470                              1_GWF-(84301)
 Backtracking                     175                     1          2       37.433613       11.174276                                                           
 Model                            175        102                                                            -1.3182972                              1_GWF-(84301)
 Backtracking                     176                     1          2       37.058922       11.432109                                                           
 Model                            176         98                                                            -1.3071982                              1_GWF-(84301)
 Backtracking                     177                     1          2       36.730601       11.684152                                                           
 Model                            177        105                                                            -1.2968264                              1_GWF-(84301)
 Backtracking                     178                     1          2       36.418005       11.930614                                                           
 Model                            178        114                                                            -1.2862496                              1_GWF-(84301)
 Backtracking                     179                     1          2       36.107601       12.171566                                                           
 Model                            179        105                                                            -1.2757136                              1_GWF-(84301)
 Backtracking                     180                     1          2       35.792291       12.407010                                                           
 Model                            180        114                                                            -1.2652222                              1_GWF-(84301)
 Backtracking                     181                     1          2       35.475964       12.636985                                                           
 Model                            181        105                                                            -1.2549328                              1_GWF-(84301)
 Backtracking                     182                     1          2       35.170237       12.861647                                                           
 Model                            182         82                                                            -1.2452711                              1_GWF-(84301)
 Backtracking                     183                     1          2       34.900837       13.081409                                                           
 Model                            183        121                                                            -1.2345041                              1_GWF-(84301)
 Backtracking                     184                     1          2       34.559702       13.295601                                                           
 Model                            184        113                                                            -1.2244047                              1_GWF-(84301)
 Backtracking                     185                     1          2       34.258626       13.504676                                                           
 Model                            185        101                                                            -1.2143255                              1_GWF-(84301)
 Backtracking                     186                     1          2       33.955645       13.708661                                                           
 Model                            186        103                                                            -1.2044311                              1_GWF-(84301)
 Backtracking                     187                     1          2       33.662323       13.907704                                                           
 Model                            187        103                                                            -1.1945749                              1_GWF-(84301)
 Backtracking                     188                     1          2       33.368183       14.101842                                                           
 Model                            188        103                                                            -1.1859607                              1_GWF-(84301)
 Backtracking                     189                     1          2       33.048656       14.290865                                                           
 Model                            189         97                                                            -1.1749851                              1_GWF-(84301)
 Backtracking                     190                     1          2       32.784304       14.475382                                                           
 Model                            190         95                                                            -1.1656158                              1_GWF-(84301)
 Backtracking                     191                     1          2       32.521855       14.655450                                                           
 Model                            191        109                                                            -1.1559270                              1_GWF-(84301)
 Backtracking                     192                     1          2       32.218522       14.830705                                                           
 Model                            192        107                                                            -1.1463345                              1_GWF-(84301)
 Backtracking                     193                     1          2       31.932742       15.001370                                                           
 Model                            193        112                                                            -1.1370874                              1_GWF-(84301)
 Backtracking                     194                     1          2       31.657581       15.167594                                                           
 Model                            194        104                                                            -1.1277496                              1_GWF-(84301)
 Backtracking                     195                     1          2       31.380688       15.329403                                                           
 Model                            195        104                                                            -1.1185069                              1_GWF-(84301)
 Backtracking                     196                     1          2       31.106638       15.486869                                                           
 Model                            196        106                                                            -1.1093489                              1_GWF-(84301)
 Backtracking                     197                     1          2       30.834497       15.640054                                                           
 Model                            197        103                                                            -1.1002368                              1_GWF-(84301)
 Backtracking                     198                     1          2       30.563597       15.789012                                                           
 Model                            198        104                                                            -1.0912233                              1_GWF-(84301)
 Backtracking                     199                     1          2       30.294819       15.933805                                                           
 Model                            199        103                                                            -1.0823109                              1_GWF-(84301)
 Backtracking                     200                     1          2       30.031657       16.074531                                                           
 Model                            200        107                                                            -1.0734218                              1_GWF-(84301)
 Backtracking                     201                     1          2       29.770205       16.211247                                                           
 Model                            201        108                                                            -1.0645877                              1_GWF-(84301)
 Backtracking                     202                     1          2       29.505599       16.343960                                                           
 Model                            202        113                                                            -1.0558985                              1_GWF-(84301)
 Backtracking                     203                     1          2       29.251724       16.472817                                                           
 Model                            203        109                                                            -1.0472276                              1_GWF-(84301)
 Backtracking                     204                     1          2       28.995790       16.597836                                                           
 Model                            204         87                                                            -1.0391366                              1_GWF-(84301)
 Backtracking                     205                     1          2       28.765873       16.719314                                                           
 Model                            205        114                                                            -1.0301283                              1_GWF-(84301)
 Backtracking                     206                     1          2       28.490637       16.836834                                                           
 Model                            206        113                                                            -1.0216689                              1_GWF-(84301)
 Backtracking                     207                     1          2       28.240527       16.950686                                                           
 Model                            207        100                                                            -1.0131612                              1_GWF-(84301)
 Backtracking                     208                     1          2       27.986036       17.060862                                                           
 Model                            208         91                                                            -1.0045536                              1_GWF-(84301)
 Backtracking                     209                     1          2       27.792753       17.168001                                                           
 Model                            209        110                                                           -0.99672087                              1_GWF-(84301)
 Backtracking                     210                     1          2       27.504995       17.271208                                                           
 Model                            210         88                                                           -0.98883872                              1_GWF-(84301)
 Backtracking                     211                     1          2       27.290592       17.371244                                                           
 Model                            211         85                                                           -0.98089966                              1_GWF-(84301)
 Backtracking                     212                     1          2       27.054228       17.467922                                                           
 Model                            212        105                                                           -0.97239907                              1_GWF-(84301)
 Backtracking                     213                     1          2       26.787310       17.560971                                                           
 Model                            213        110                                                           -0.96439290                              1_GWF-(84301)
 Backtracking                     214                     1          2       26.552741       17.650750                                                           
 Model                            214         92                                                           -0.95678703                              1_GWF-(84301)
 Backtracking                     215                     1          1       26.344771       18.518981                                                           
 Model                            215        110                                                           -0.87791140                              1_GWF-(84301)
 Backtracking                     216                     1          1       24.144414       19.080722                                                           
 Model                            216         94                                                           -0.80555537                              1_GWF-(84301)
 Backtracking                     217                     1          1       22.139971       19.386077                                                           
 Model                            217        116                                                           -0.73961477                              1_GWF-(84301)
 Backtracking                     218                     0          0       20.317675       20.317675                       *                                   
 Model                            218         93                                                           -0.13171474                              1_GWF-(84301)
 Backtracking                     219                     0          0       3.6560693       3.6560693                       *                                   
 Model                            219         85                                                       -2.37309412E-02                              1_GWF-(84301)
 Backtracking                     220                     0          0      0.64151849      0.64151849                       *                                   
 Model                            220         67                                                       -4.27893209E-03                              1_GWF-(84301)
 Backtracking                     221                     0          0      0.10942439      0.10942439                       *                                   
 Model                            221         29                                                        2.41392748E-04       *                      1_GWF-(20828)
 ----------------------------------------------------------------------------------------------------------------------------------------------------------------


 221 CALLS TO NUMERICAL SOLUTION IN TIME STEP 1 STRESS PERIOD 1
 22736 TOTAL ITERATIONS

 MEMORY MANAGER TOTAL STORAGE BY DATA TYPE, IN MEGABYTES
 -------------------------------
                    ALLOCATED   
 DATA TYPE           MEMORY     
 -------------------------------
 Character        1.04880000E-02
 Logical          4.80000000E-05
 Integer          40.411108     
 Real             97.611024     
 -------------------------------
 Total            138.03267     
 Virtual          0.0000000     
 -------------------------------


 
 Run end date and time (yyyy/mm/dd hh:mm:ss): 2026/01/23 22:26:06
 Elapsed run time:  2 Minutes,  9.796 Seconds
 Normal termination of simulation.
