                                   MODFLOW 6
                U.S. GEOLOGICAL SURVEY MODULAR HYDROLOGIC MODEL
                            VERSION 6.6.0 12/20/2024

   MODFLOW 6 compiled Dec 31 2024 17:10:16 with Intel(R) Fortran Intel(R) 64
   Compiler Classic for applications running on Intel(R) 64, Version 2021.7.0
                             Build 20220726_000000

This software has been approved for release by the U.S. Geological 
Survey (USGS). Although the software has been subjected to rigorous 
review, the USGS reserves the right to update the software as needed 
pursuant to further analysis and review. No warranty, expressed or 
implied, is made by the USGS or the U.S. Government as to the 
functionality of the software and related material nor shall the 
fact of release constitute any such warranty. Furthermore, the 
software is released on condition that neither the USGS nor the U.S. 
Government shall be held liable for any damages resulting from its 
authorized or unauthorized use. Also refer to the USGS Water 
Resources Software User Rights Notice for complete use, copyright, 
and distribution information.


As a work of the United States Government, this USGS product is 
in the public domain within the United States. You can copy, 
modify, distribute, and perform the work, even for commercial 
purposes, all without asking permission. Additionally, USGS 
waives copyright and related rights in the work worldwide 
through CC0 1.0 Universal Public Domain Dedication 
(https://creativecommons.org/publicdomain/zero/1.0/).

The following GNU Lesser General Public License (LGPL) libraries
are used in this USGS product:

    SPARSKIT version 2.0
      ilut, luson, and qsplit 
      (https://www-users.cse.umn.edu/~saad/software/SPARSKIT/)

    RCM - Reverse Cuthill McKee Ordering
      (https://people.math.sc.edu/Burkardt/f_src/rcm/rcm.html)

    BLAS - Basic Linear Algebra Subprograms Level 1
      (https://people.math.sc.edu/Burkardt/f_src/blas1_d/blas1_d.html)

    SPARSEKIT - Sparse Matrix Utility Package
      amux, dperm, dvperm, rperm, and cperm
      (https://people.sc.fsu.edu/~jburkardt/f77_src/sparsekit/sparsekit.html)

The following BSD-3 License libraries are used in this USGS product:

    Modern Fortran DAG Library
      Copyright (c) 2018, Jacob Williams
      All rights reserved.
      (https://github.com/jacobwilliams/daglib)

MODFLOW 6 compiler options: /O2 /heap-arrays:0 /fpe:0 /traceback /nologo /fpp
/c /module:win64\mod_mf6\ /object:win64\obj_mf6\

System command used to initiate simulation:
mf6

MODFLOW was compiled using uniform precision.

Real Variables
  KIND: 8
  TINY (smallest non-zero value):    2.225074-308
  HUGE (largest value):    1.797693+308
  PRECISION: 15
  SIZE IN BITS: 64

Integer Variables
  KIND: 4
  HUGE (largest value): 2147483647
  SIZE IN BITS: 32

Long Integer Variables
  KIND: 8
  HUGE (largest value): 9223372036854775807
  SIZE IN BITS: 64

Logical Variables
  KIND: 4
  SIZE IN BITS: 32
 

 OPENED mfsim.nam
 FILE TYPE:NAM6               UNIT 1001   STATUS:OLD                 
 FORMAT:FORMATTED              ACCESS:SEQUENTIAL          
 ACTION:READ                

 # File generated by Flopy version 3.9.1 on 02/10/2026 at 21:04:46.

 OPENED voronoi_caseB.tdis
 FILE TYPE:TDIS6              UNIT 1002   STATUS:OLD                 
 FORMAT:FORMATTED              ACCESS:SEQUENTIAL          
 ACTION:READ                

 # File generated by Flopy version 3.9.1 on 02/10/2026 at 21:04:46.

 OPENED voronoi_caseB.nam
 FILE TYPE:GWF6               UNIT 1003   STATUS:OLD                 
 FORMAT:FORMATTED              ACCESS:SEQUENTIAL          
 ACTION:READ                

 # File generated by Flopy version 3.9.1 on 02/10/2026 at 21:04:46.

 OPENED voronoi_caseB.disv
 FILE TYPE:DISV6              UNIT 1004   STATUS:OLD                 
 FORMAT:FORMATTED              ACCESS:SEQUENTIAL          
 ACTION:READ                

 # File generated by Flopy version 3.9.1 on 02/10/2026 at 21:04:46.

 OPENED voronoi_caseB.npf
 FILE TYPE:NPF6               UNIT 1005   STATUS:OLD                 
 FORMAT:FORMATTED              ACCESS:SEQUENTIAL          
 ACTION:READ                

 # File generated by Flopy version 3.9.1 on 02/10/2026 at 21:04:49.

 OPENED voronoi_caseB.ic
 FILE TYPE:IC6                UNIT 1006   STATUS:OLD                 
 FORMAT:FORMATTED              ACCESS:SEQUENTIAL          
 ACTION:READ                

 # File generated by Flopy version 3.9.1 on 02/10/2026 at 21:04:49.

 OPENED voronoi_caseB.oc
 FILE TYPE:OC6       UNIT 1007   STATUS:OLD                 
 FORMAT:FORMATTED              ACCESS:SEQUENTIAL          
 ACTION:READ                


 OPENED voronoi_caseB.wel
 FILE TYPE:WEL6               UNIT 1008   STATUS:OLD                 
 FORMAT:FORMATTED              ACCESS:SEQUENTIAL          
 ACTION:READ                

 # File generated by Flopy version 3.9.1 on 02/10/2026 at 21:04:50.

 OPENED voronoi_caseB.rch
 FILE TYPE:RCH6               UNIT 1010   STATUS:OLD                 
 FORMAT:FORMATTED              ACCESS:SEQUENTIAL          
 ACTION:READ                

 # File generated by Flopy version 3.9.1 on 02/10/2026 at 21:04:50.

 OPENED voronoi_caseB.evt
 FILE TYPE:EVT6               UNIT 1012   STATUS:OLD                 
 FORMAT:FORMATTED              ACCESS:SEQUENTIAL          
 ACTION:READ                

 # File generated by Flopy version 3.9.1 on 02/10/2026 at 21:04:50.

 OPENED voronoi_caseB.chd
 FILE TYPE:CHD6               UNIT 1013   STATUS:OLD                 
 FORMAT:FORMATTED              ACCESS:SEQUENTIAL          
 ACTION:READ                

 # File generated by Flopy version 3.9.1 on 02/10/2026 at 21:04:49.

 READING SIMULATION OPTIONS
    MAXIMUM NUMBER OF ERRORS THAT WILL BE STORED IS 1000
 END OF SIMULATION OPTIONS

 READING SIMULATION TIMING

 TDIS -- TEMPORAL DISCRETIZATION PACKAGE,
 VERSION 1 : 11/13/2014 - INPUT READ FROM MEMPATH: __INPUT__/SIM/TDIS                                
 PROCESSING TDIS OPTIONS
    SIMULATION TIME UNIT IS SECONDS
 END OF TDIS OPTIONS
 PROCESSING TDIS DIMENSIONS
    1 STRESS PERIOD(S) IN SIMULATION
 END OF TDIS DIMENSIONS
 PROCESSING TDIS PERIODDATA


 STRESS PERIOD     LENGTH       TIME STEPS     MULTIPLIER FOR DELT
 ----------------------------------------------------------------------------
        1         1.000000          1                    1.000
 END OF TDIS PERIODDATA
 END OF SIMULATION TIMING

 READING SIMULATION MODELS
    GWF6 model 1 will be created
 END OF SIMULATION MODELS

 READING SIMULATION EXCHANGES
 END OF SIMULATION EXCHANGES

 READING SOLUTIONGROUP

 Creating solution: SLN_1           

 OPENED voronoi_caseB.ims
 FILE TYPE:IMS   UNIT 1015   STATUS:OLD                 
 FORMAT:FORMATTED              ACCESS:SEQUENTIAL          
 ACTION:READ                

 END OF SOLUTIONGROUP

PROCESSING MODEL CONNECTIONS

 IMS -- ITERATIVE MODEL SOLUTION PACKAGE, VERSION 6, 4/28/2017
         INPUT READ FROM UNIT 1015
 # File generated by Flopy version 3.9.1 on 02/10/2026 at 21:04:46.

 PROCESSING IMS OPTIONS
 COMPLEX OPTION:
 DEFAULT SOLVER INPUT VALUES REFLECT STRONGLY NONLINEAR MODEL
 END OF IMS OPTIONS

 PROCESSING IMS NONLINEAR
 END OF IMS NONLINEAR DATA
 **UNDER-RELAXATION WILL BE USED***
 

 PROCESSING LINEAR DATA
 END OF LINEAR DATA
 ***IMS LINEAR SOLVER WILL BE USED***

 IMSLINEAR -- UNSTRUCTURED LINEAR SOLUTION PACKAGE, VERSION 8, 04/28/2017
 An asymmetric matrix will be solved

 OUTER ITERATION CONVERGENCE CRITERION    (DVCLOSE) =    0.100000E-02
 MAXIMUM NUMBER OF OUTER ITERATIONS        (MXITER) = 300
 SOLVER PRINTOUT INDEX                     (IPRIMS) = 1
 NONLINEAR ITERATION METHOD            (NONLINMETH) = 3
 LINEAR SOLUTION METHOD                   (LINMETH) = 1
 UNDER-RELAXATION WEIGHT REDUCTION FACTOR   (THETA) =    0.800000E+00
 UNDER-RELAXATION WEIGHT INCREASE INCREMENT (KAPPA) =    0.100000E-03
 UNDER-RELAXATION PREVIOUS HISTORY FACTOR   (GAMMA) =    0.000000E+00
 UNDER-RELAXATION MOMENTUM TERM         (AMOMENTUM) =    0.000000E+00
 MAXIMUM NUMBER OF BACKTRACKS            (NUMTRACK) = 20
 BACKTRACKING TOLERANCE FACTOR               (BTOL) =    0.105000E+01
 BACKTRACKING REDUCTION FACTOR             (BREDUC) =    0.100000E+00
 BACKTRACKING RESIDUAL LIMIT              (RES_LIM) =    0.200000E-02

       SOLUTION BY THE BICONJUGATE-GRADIENT STABILIZED METHOD
 ------------------------------------------------------------------
 MAXIMUM OF 300 CALLS OF SOLUTION ROUTINE
 MAXIMUM OF 1200 INTERNAL ITERATIONS PER CALL TO SOLUTION ROUTINE
 LINEAR ACCELERATION METHOD            = BCGS      
 MATRIX PRECONDITIONING TYPE           = MOD. INCOMPLETE LUT 
 MATRIX SCALING APPROACH               = NO SCALING          
 MATRIX REORDERING APPROACH            = ORIGINAL ORDERING        
 NUMBER OF ORTHOGONALIZATIONS          = 2
 HEAD CHANGE CRITERION FOR CLOSURE     =    0.10000E-05
 RESIDUAL CHANGE CRITERION FOR CLOSURE =    0.10000E+00
 RESIDUAL CONVERGENCE OPTION           = 0
 RESIDUAL CONVERGENCE NORM             = INFINITY NORM   
 RELAXATION FACTOR                     =    0.92000E+00
 NUMBER OF LEVELS                      =              5
 DROP TOLERANCE                        =    0.10000E-03


 
    Solving:  Stress period:     1    Time step:     1
 
1
 STRESS PERIOD NO. 1, LENGTH =   1.000000    
 ------------------------------------------
 NUMBER OF TIME STEPS = 1
 MULTIPLIER FOR DELT =     1.000
 INITIAL TIME STEP SIZE =   1.000000    



 PSEUDO-TRANSIENT CONTINUATION WILL BE APPLIED TO MODEL 1 ("VORONOI_CASEB") DURING THIS TIME STEP

 SLN_1 OUTER ITERATION SUMMARY
 ----------------------------------------------------------------------------------------------------------------------------------------------------------------
                                OUTER      INNER  BACKTRACK  BACKTRACK        INCOMING        OUTGOING                    STEP   MAXIMUM CHANGE MODEL-(CELLID) OR
 OUTER ITERATION STEP       ITERATION  ITERATION       FLAG ITERATIONS        RESIDUAL        RESIDUAL  MAXIMUM CHANGE SUCCESS             MODEL-PACKAGE-(NUMBER)
 ----------------------------------------------------------------------------------------------------------------------------------------------------------------
 Backtracking                       1                     0          0       87654.910       87654.910                       *                                   
 Model                              1          8                                                            -5.7426329                            1_GWF-(1,39687)
 Backtracking                       2                     0          0       1661.5298       1661.5298                       *                                   
 Model                              2         26                                                            -4.1883780                            1_GWF-(1,39687)
 Backtracking                       3                     1          1       9233.9441       1614.0784                                                           
 Model                              3         27                                                            -3.7890348                            1_GWF-(1,39687)
 Backtracking                       4                     1          2       8802.4684       1635.7747                                                           
 Model                              4         27                                                            -3.7506065                            1_GWF-(1,39687)
 Backtracking                       5                     1          2       8717.3313       1660.6304                                                           
 Model                              5         29                                                            -3.7123114                            1_GWF-(1,39687)
 Backtracking                       6                     1          2       8628.6804       1688.2575                                                           
 Model                              6         29                                                            -3.6741904                            1_GWF-(1,39687)
 Backtracking                       7                     1          2       8537.3517       1718.2839                                                           
 Model                              7         31                                                            -3.6362824                            1_GWF-(1,39687)
 Backtracking                       8                     1          2       8444.1048       1750.3591                                                           
 Model                              8         27                                                            -3.5986199                            1_GWF-(1,39687)
 Backtracking                       9                     1          2       8349.6112       1784.1584                                                           
 Model                              9         27                                                            -3.5612312                            1_GWF-(1,39687)
 Backtracking                      10                     1          2       8254.5132       1819.3845                                                           
 Model                             10         25                                                            -3.5241406                            1_GWF-(1,39687)
 Backtracking                      11                     1          2       8159.2794       1855.7684                                                           
 Model                             11         25                                                            -3.4873747                            1_GWF-(1,39687)
 Backtracking                      12                     1          2       8064.3661       1893.0686                                                           
 Model                             12         25                                                            -3.4509484                            1_GWF-(1,39687)
 Backtracking                      13                     1          2       7970.1378       1931.0701                                                           
 Model                             13         25                                                            -3.4148789                            1_GWF-(1,39687)
 Backtracking                      14                     1          2       7876.8893       1969.5830                                                           
 Model                             14         25                                                            -3.3791776                            1_GWF-(1,39687)
 Backtracking                      15                     1          2       7784.8479       2008.4400                                                           
 Model                             15         22                                                            -3.3438591                            1_GWF-(1,39687)
 Backtracking                      16                     1          2       7694.1988       2047.4947                                                           
 Model                             16         22                                                            -3.3089211                            1_GWF-(1,39687)
 Backtracking                      17                     1          2       7605.0844       2086.6196                                                           
 Model                             17         27                                                            -3.2743675                            1_GWF-(1,39687)
 Backtracking                      18                     1          2       7517.6068       2125.7036                                                           
 Model                             18         27                                                            -3.2402124                            1_GWF-(1,39687)
 Backtracking                      19                     1          2       7431.8377       2164.6511                                                           
 Model                             19         27                                                            -3.2064551                            1_GWF-(1,39687)
 Backtracking                      20                     1          2       7347.8258       2203.3790                                                           
 Model                             20         26                                                            -3.1730943                            1_GWF-(1,39687)
 Backtracking                      21                     1          2       7265.5957       2241.8164                                                           
 Model                             21         26                                                            -3.1401304                            1_GWF-(1,39687)
 Backtracking                      22                     1          2       7185.1595       2279.9024                                                           
 Model                             22         26                                                            -3.1075615                            1_GWF-(1,39687)
 Backtracking                      23                     1          2       7106.5253       2317.5851                                                           
 Model                             23         26                                                            -3.0753841                            1_GWF-(1,39687)
 Backtracking                      24                     1          2       7029.6496       2354.8203                                                           
 Model                             24         24                                                            -3.0436001                            1_GWF-(1,39687)
 Backtracking                      25                     1          2       6954.5287       2391.5710                                                           
 Model                             25         24                                                            -3.0122026                            1_GWF-(1,39687)
 Backtracking                      26                     1          2       6881.1250       2427.8059                                                           
 Model                             26         24                                                            -2.9811848                            1_GWF-(1,39687)
 Backtracking                      27                     1          2       6809.4077       2463.4991                                                           
 Model                             27         27                                                            -2.9505498                            1_GWF-(1,39687)
 Backtracking                      28                     1          2       6739.3421       2498.6292                                                           
 Model                             28         27                                                            -2.9202901                            1_GWF-(1,39687)
 Backtracking                      29                     1          2       6670.8843       2533.1787                                                           
 Model                             29         24                                                            -2.8904032                            1_GWF-(1,39687)
 Backtracking                      30                     1          2       6603.9904       2567.1339                                                           
 Model                             30         24                                                            -2.8608816                            1_GWF-(1,39687)
 Backtracking                      31                     1          2       6538.6221       2600.4838                                                           
 Model                             31         24                                                            -2.8317210                            1_GWF-(1,39687)
 Backtracking                      32                     1          2       6474.7326       2633.2201                                                           
 Model                             32         24                                                            -2.8029174                            1_GWF-(1,39687)
 Backtracking                      33                     1          2       6412.2777       2665.3370                                                           
 Model                             33         24                                                            -2.7744657                            1_GWF-(1,39687)
 Backtracking                      34                     1          2       6351.2144       2696.8304                                                           
 Model                             34         24                                                            -2.7463598                            1_GWF-(1,39687)
 Backtracking                      35                     1          2       6291.5007       2727.6982                                                           
 Model                             35         24                                                            -2.7185947                            1_GWF-(1,39687)
 Backtracking                      36                     1          2       6233.0912       2757.9396                                                           
 Model                             36         24                                                            -2.6911657                            1_GWF-(1,39687)
 Backtracking                      37                     1          2       6175.9460       2787.5553                                                           
 Model                             37         24                                                            -2.6640676                            1_GWF-(1,39687)
 Backtracking                      38                     1          2       6120.0246       2816.5469                                                           
 Model                             38         24                                                            -2.6372956                            1_GWF-(1,39687)
 Backtracking                      39                     1          2       6065.2875       2844.9173                                                           
 Model                             39         24                                                            -2.6108445                            1_GWF-(1,39687)
 Backtracking                      40                     1          2       6011.6966       2872.6698                                                           
 Model                             40         22                                                            -2.5847116                            1_GWF-(1,39687)
 Backtracking                      41                     1          2       5959.2156       2899.8090                                                           
 Model                             41         22                                                            -2.5588875                            1_GWF-(1,39687)
 Backtracking                      42                     1          2       5907.8074       2926.3397                                                           
 Model                             42         22                                                            -2.5333703                            1_GWF-(1,39687)
 Backtracking                      43                     1          2       5857.4379       2952.2672                                                           
 Model                             43         22                                                            -2.5081552                            1_GWF-(1,39687)
 Backtracking                      44                     1          2       5808.0735       2977.5977                                                           
 Model                             44         22                                                            -2.4832377                            1_GWF-(1,39687)
 Backtracking                      45                     1          2       5759.6830       3002.3373                                                           
 Model                             45         22                                                            -2.4586127                            1_GWF-(1,39687)
 Backtracking                      46                     1          2       5712.2339       3026.4927                                                           
 Model                             46         22                                                            -2.4342761                            1_GWF-(1,39687)
 Backtracking                      47                     1          2       5665.6966       3050.0709                                                           
 Model                             47         24                                                            -2.4102219                            1_GWF-(1,39687)
 Backtracking                      48                     1          2       5620.0442       3073.0789                                                           
 Model                             48         24                                                            -2.3864480                            1_GWF-(1,39687)
 Backtracking                      49                     1          2       5575.2481       3095.5240                                                           
 Model                             49         24                                                            -2.3629492                            1_GWF-(1,39687)
 Backtracking                      50                     1          2       5531.2817       3117.4139                                                           
 Model                             50         22                                                            -2.3397220                            1_GWF-(1,39687)
 Backtracking                      51                     1          2       5488.1200       3138.7559                                                           
 Model                             51         22                                                            -2.3167607                            1_GWF-(1,39687)
 Backtracking                      52                     1          2       5445.7371       3159.5579                                                           
 Model                             52         22                                                            -2.2940622                            1_GWF-(1,39687)
 Backtracking                      53                     1          2       5404.1107       3179.8275                                                           
 Model                             53         22                                                            -2.2716225                            1_GWF-(1,39687)
 Backtracking                      54                     1          2       5363.2170       3199.5725                                                           
 Model                             54         22                                                            -2.2494377                            1_GWF-(1,39687)
 Backtracking                      55                     1          2       5323.0335       3218.8007                                                           
 Model                             55         22                                                            -2.2275039                            1_GWF-(1,39687)
 Backtracking                      56                     1          2       5283.5418       3237.5199                                                           
 Model                             56         22                                                            -2.2058176                            1_GWF-(1,39687)
 Backtracking                      57                     1          2       5244.7201       3255.7380                                                           
 Model                             57         22                                                            -2.1843743                            1_GWF-(1,39687)
 Backtracking                      58                     1          2       5206.5505       3273.4626                                                           
 Model                             58         25                                                            -2.1631708                            1_GWF-(1,39687)
 Backtracking                      59                     1          2       5169.0119       3290.7016                                                           
 Model                             59         24                                                            -2.1422050                            1_GWF-(1,39687)
 Backtracking                      60                     1          2       5132.0878       3307.4625                                                           
 Model                             60         24                                                            -2.1214720                            1_GWF-(1,39687)
 Backtracking                      61                     1          1       5095.7605       3472.4606                                                           
 Model                             61         20                                                            -1.9169511                            1_GWF-(1,39687)
 Backtracking                      62                     1          1       4766.6028       3592.1929                                                           
 Model                             62         20                                                            -1.7345371                            1_GWF-(1,39687)
 Backtracking                      63                     1          1       4485.7736       3674.4727                                                           
 Model                             63         20                                                            -1.5712608                            1_GWF-(1,39687)
 Backtracking                      64                     1          1       4241.8882       3725.8121                                                           
 Model                             64         22                                                            -1.4246808                            1_GWF-(1,39687)
 Backtracking                      65                     1          1       4027.0514       3751.6191                                                           
 Model                             65         20                                                            -1.2927716                            1_GWF-(1,39687)
 Backtracking                      66                     0          0       3835.6141       3835.6141                       *                                   
 Model                             66         18                                                           -0.46825685                            1_GWF-(2,39928)
 Backtracking                      67                     0          0       2218.7392       2218.7392                       *                                   
 Model                             67         22                                                           -0.48835190                              1_GWF-(1,650)
 Backtracking                      68                     0          0       2007.1819       2007.1819                       *                                   
 Model                             68         22                                                           -0.39486324                            1_GWF-(1,12425)
 Backtracking                      69                     0          0       1565.0906       1565.0906                       *                                   
 Model                             69         26                                                           -0.37250159                            1_GWF-(1,16293)
 Backtracking                      70                     0          0       1414.4847       1414.4847                       *                                   
 Model                             70         28                                                           -0.32768062                            1_GWF-(1,17069)
 Backtracking                      71                     0          0       1213.1218       1213.1218                       *                                   
 Model                             71         28                                                           -0.30135399                            1_GWF-(1,17423)
 Backtracking                      72                     0          0       1097.5752       1097.5752                       *                                   
 Model                             72         27                                                           -0.28033779                            1_GWF-(1,17423)
 Backtracking                      73                     0          0       986.12824       986.12824                       *                                   
 Model                             73         29                                                           -0.25245738                            1_GWF-(1,17423)
 Backtracking                      74                     0          0       907.14362       907.14362                       *                                   
 Model                             74         27                                                           -0.21557904                            1_GWF-(1,17423)
 Backtracking                      75                     0          0       838.91228       838.91228                       *                                   
 Model                             75         28                                                           -0.17859310                            1_GWF-(1,17423)
 Backtracking                      76                     0          0       784.76309       784.76309                       *                                   
 Model                             76         29                                                           -0.14332415                            1_GWF-(1,17423)
 Backtracking                      77                     0          0       738.23452       738.23452                       *                                   
 Model                             77         26                                                           -0.11235071                            1_GWF-(1,17423)
 Backtracking                      78                     0          0       698.57643       698.57643                       *                                   
 Model                             78         33                                                       -8.61699255E-02                            1_GWF-(1,17423)
 Backtracking                      79                     0          0       663.56443       663.56443                       *                                   
 Model                             79         32                                                        8.56771566E-02                            1_GWF-(1,38314)
 Backtracking                      80                     0          0       632.39050       632.39050                       *                                   
 Model                             80         28                                                        8.72024828E-02                            1_GWF-(1,33045)
 Backtracking                      81                     0          0       604.17773       604.17773                       *                                   
 Model                             81         30                                                        8.71393941E-02                            1_GWF-(1,33045)
 Backtracking                      82                     0          0       578.44147       578.44147                       *                                   
 Model                             82         34                                                        8.58047679E-02                            1_GWF-(1,33045)
 Backtracking                      83                     0          0       554.84281       554.84281                       *                                   
 Model                             83         34                                                        8.35749161E-02                            1_GWF-(1,33045)
 Backtracking                      84                     0          0       533.06997       533.06997                       *                                   
 Model                             84         32                                                        8.07658579E-02                            1_GWF-(1,33045)
 Backtracking                      85                     0          0       512.99568       512.99568                       *                                   
 Model                             85         32                                                        7.81903035E-02                            1_GWF-(1,38003)
 Backtracking                      86                     0          0       494.41127       494.41127                       *                                   
 Model                             86         36                                                        7.54692193E-02                            1_GWF-(1,38003)
 Backtracking                      87                     0          0       477.23224       477.23224                       *                                   
 Model                             87         40                                                        7.26763595E-02                            1_GWF-(1,38003)
 Backtracking                      88                     0          0       461.24855       461.24855                       *                                   
 Model                             88         40                                                        6.99171608E-02                            1_GWF-(1,38003)
 Backtracking                      89                     0          0       446.39359       446.39359                       *                                   
 Model                             89         30                                                        7.03484402E-02                            1_GWF-(2,39291)
 Backtracking                      90                     0          0       432.59787       432.59787                       *                                   
 Model                             90         31                                                        7.17924328E-02                            1_GWF-(2,39291)
 Backtracking                      91                     0          0       419.67815       419.67815                       *                                   
 Model                             91         41                                                        7.30719456E-02                            1_GWF-(2,39291)
 Backtracking                      92                     0          0       407.47852       407.47852                       *                                   
 Model                             92         42                                                        7.42110924E-02                            1_GWF-(2,39291)
 Backtracking                      93                     0          0       396.13777       396.13777                       *                                   
 Model                             93         47                                                        7.51971821E-02                            1_GWF-(2,39291)
 Backtracking                      94                     0          0       385.42463       385.42463                       *                                   
 Model                             94         42                                                        7.60295272E-02                            1_GWF-(2,39291)
 Backtracking                      95                     0          0       375.28787       375.28787                       *                                   
 Model                             95         45                                                        7.67174501E-02                            1_GWF-(2,39291)
 Backtracking                      96                     0          0       365.71201       365.71201                       *                                   
 Model                             96         41                                                        7.72570909E-02                            1_GWF-(2,39291)
 Backtracking                      97                     0          0       356.57559       356.57559                       *                                   
 Model                             97         34                                                        7.76938910E-02                            1_GWF-(2,39291)
 Backtracking                      98                     0          0       348.04294       348.04294                       *                                   
 Model                             98         48                                                        7.79201486E-02                            1_GWF-(2,39291)
 Backtracking                      99                     0          0       339.49180       339.49180                       *                                   
 Model                             99         48                                                        7.80600741E-02                            1_GWF-(2,39291)
 Backtracking                     100                     0          0       331.59666       331.59666                       *                                   
 Model                            100         45                                                        7.80576118E-02                            1_GWF-(2,39291)
 Backtracking                     101                     0          0       323.85825       323.85825                       *                                   
 Model                            101         34                                                        7.79701770E-02                            1_GWF-(2,39291)
 Backtracking                     102                     0          0       316.58225       316.58225                       *                                   
 Model                            102         50                                                        7.77214783E-02                            1_GWF-(2,39291)
 Backtracking                     103                     0          0       309.21802       309.21802                       *                                   
 Model                            103         35                                                        7.74416431E-02                            1_GWF-(2,39291)
 Backtracking                     104                     0          0       302.47445       302.47445                       *                                   
 Model                            104         35                                                        7.70351392E-02                            1_GWF-(2,39291)
 Backtracking                     105                     0          0       295.67203       295.67203                       *                                   
 Model                            105         47                                                        7.64597764E-02                            1_GWF-(2,39291)
 Backtracking                     106                     0          0       288.86562       288.86562                       *                                   
 Model                            106         50                                                        7.58527129E-02                            1_GWF-(2,39291)
 Backtracking                     107                     0          0       282.52620       282.52620                       *                                   
 Model                            107         49                                                        7.51466292E-02                            1_GWF-(2,39291)
 Backtracking                     108                     0          0       276.18526       276.18526                       *                                   
 Model                            108         48                                                        7.43825500E-02                            1_GWF-(2,39291)
 Backtracking                     109                     0          0       270.02694       270.02694                       *                                   
 Model                            109         49                                                        7.35436634E-02                            1_GWF-(2,39291)
 Backtracking                     110                     0          0       263.96901       263.96901                       *                                   
 Model                            110         37                                                        7.27366286E-02                            1_GWF-(2,39291)
 Backtracking                     111                     0          0       258.25091       258.25091                       *                                   
 Model                            111         52                                                        7.16910702E-02                            1_GWF-(2,39291)
 Backtracking                     112                     0          0       252.03948       252.03948                       *                                   
 Model                            112         38                                                        7.07643455E-02                            1_GWF-(2,39291)
 Backtracking                     113                     0          0       246.61662       246.61662                       *                                   
 Model                            113         39                                                        6.96975214E-02                            1_GWF-(2,39291)
 Backtracking                     114                     0          0       240.76753       240.76753                       *                                   
 Model                            114         39                                                        6.85980400E-02                            1_GWF-(2,39291)
 Backtracking                     115                     0          0       235.19373       235.19373                       *                                   
 Model                            115         39                                                        6.74282476E-02                            1_GWF-(2,39291)
 Backtracking                     116                     0          0       229.57703       229.57703                       *                                   
 Model                            116         49                                                        6.61478086E-02                            1_GWF-(2,39291)
 Backtracking                     117                     0          0       223.90812       223.90812                       *                                   
 Model                            117         51                                                        6.49086821E-02                            1_GWF-(2,39291)
 Backtracking                     118                     0          0       218.54921       218.54921                       *                                   
 Model                            118         52                                                        6.36267717E-02                            1_GWF-(2,39089)
 Backtracking                     119                     0          0       213.10167       213.10167                       *                                   
 Model                            119         48                                                        6.22760407E-02                            1_GWF-(2,39089)
 Backtracking                     120                     0          0       207.66611       207.66611                       *                                   
 Model                            120         52                                                        6.09932258E-02                            1_GWF-(2,39089)
 Backtracking                     121                     0          0       202.44464       202.44464                       *                                   
 Model                            121         39                                                        5.98221588E-02                            1_GWF-(2,39089)
 Backtracking                     122                     0          0       197.41869       197.41869                       *                                   
 Model                            122         53                                                        5.83157764E-02                            1_GWF-(2,39089)
 Backtracking                     123                     0          0       191.71366       191.71366                       *                                   
 Model                            123         55                                                        5.69486768E-02                            1_GWF-(2,39089)
 Backtracking                     124                     0          0       186.71547       186.71547                       *                                   
 Model                            124         44                                                        5.55454830E-02                            1_GWF-(2,39089)
 Backtracking                     125                     0          0       181.52095       181.52095                       *                                   
 Model                            125         61                                                        5.41127669E-02                            1_GWF-(2,39089)
 Backtracking                     126                     0          0       176.26412       176.26412                       *                                   
 Model                            126         63                                                        5.26899587E-02                            1_GWF-(2,39089)
 Backtracking                     127                     0          0       171.17316       171.17316                       *                                   
 Model                            127         47                                                        5.12533763E-02                            1_GWF-(2,39089)
 Backtracking                     128                     0          0       166.06770       166.06770                       *                                   
 Model                            128         64                                                        4.97930396E-02                            1_GWF-(2,39089)
 Backtracking                     129                     0          0       160.92340       160.92340                       *                                   
 Model                            129         42                                                        4.84233401E-02                            1_GWF-(2,39089)
 Backtracking                     130                     0          0       156.03029       156.03029                       *                                   
 Model                            130         61                                                        4.68684516E-02                            1_GWF-(2,39089)
 Backtracking                     131                     0          0       150.71441       150.71441                       *                                   
 Model                            131         47                                                        4.54253205E-02                            1_GWF-(2,39089)
 Backtracking                     132                     0          0       145.85817       145.85817                       *                                   
 Model                            132         42                                                        4.39129175E-02                            1_GWF-(2,39089)
 Backtracking                     133                     0          0       140.75522       140.75522                       *                                   
 Model                            133         46                                                        4.24479934E-02                            1_GWF-(2,39089)
 Backtracking                     134                     0          0       135.78130       135.78130                       *                                   
 Model                            134         50                                                        4.09256828E-02                            1_GWF-(2,39089)
 Backtracking                     135                     0          0       130.71161       130.71161                       *                                   
 Model                            135         50                                                        3.94348826E-02                            1_GWF-(2,39089)
 Backtracking                     136                     0          0       125.77698       125.77698                       *                                   
 Model                            136         50                                                        3.79181012E-02                            1_GWF-(2,39089)
 Backtracking                     137                     0          0       120.77193       120.77193                       *                                   
 Model                            137         47                                                        3.64411048E-02                            1_GWF-(2,39089)
 Backtracking                     138                     0          0       115.88243       115.88243                       *                                   
 Model                            138         49                                                        3.49127295E-02                            1_GWF-(2,39089)
 Backtracking                     139                     0          0       110.87803       110.87803                       *                                   
 Model                            139         45                                                        3.34617690E-02                            1_GWF-(2,39089)
 Backtracking                     140                     0          0       106.08782       106.08782                       *                                   
 Model                            140         48                                                        3.19501524E-02                            1_GWF-(2,39089)
 Backtracking                     141                     0          0       101.10740       101.10740                       *                                   
 Model                            141         53                                                        3.04754779E-02                            1_GWF-(2,39089)
 Backtracking                     142                     0          0       96.288972       96.288972                       *                                   
 Model                            142         43                                                        2.90764357E-02                            1_GWF-(2,39089)
 Backtracking                     143                     0          0       91.558743       91.558743                       *                                   
 Model                            143         57                                                        2.74453874E-02                            1_GWF-(2,39089)
 Backtracking                     144                     0          0       86.442780       86.442780                       *                                   
 Model                            144         55                                                        2.59523458E-02                            1_GWF-(2,39089)
 Backtracking                     145                     0          0       81.749054       81.749054                       *                                   
 Model                            145         56                                                        2.44674481E-02                            1_GWF-(2,39089)
 Backtracking                     146                     0          0       76.928120       76.928120                       *                                   
 Model                            146         47                                                        2.30806781E-02                            1_GWF-(2,39089)
 Backtracking                     147                     0          0       72.307115       72.307115                       *                                   
 Model                            147         57                                                        2.15503285E-02                            1_GWF-(2,39089)
 Backtracking                     148                     0          0       67.419583       67.419583                       *                                   
 Model                            148         52                                                        2.01170665E-02                            1_GWF-(2,39089)
 Backtracking                     149                     0          0       62.830316       62.830316                       *                                   
 Model                            149         41                                                        1.86805593E-02                            1_GWF-(2,39089)
 Backtracking                     150                     0          0       58.098158       58.098158                       *                                   
 Model                            150         40                                                        1.73647652E-02                            1_GWF-(2,39089)
 Backtracking                     151                     0          0       53.739899       53.739899                       *                                   
 Model                            151         55                                                        1.58352119E-02                            1_GWF-(2,39089)
 Backtracking                     152                     0          0       48.979662       48.979662                       *                                   
 Model                            152         56                                                        1.44038798E-02                            1_GWF-(2,39089)
 Backtracking                     153                     0          0       44.497913       44.497913                       *                                   
 Model                            153         44                                                        1.30910603E-02                            1_GWF-(2,39089)
 Backtracking                     154                     0          0       40.280609       40.280609                       *                                   
 Model                            154         42                                                        1.18101242E-02                            1_GWF-(2,39089)
 Backtracking                     155                     0          0       35.973677       35.973677                       *                                   
 Model                            155         37                                                        1.05304423E-02                            1_GWF-(2,39089)
 Backtracking                     156                     0          0       31.947697       31.947697                       *                                   
 Model                            156         37                                                        9.17803142E-03                            1_GWF-(2,39089)
 Backtracking                     157                     0          0       27.689139       27.689139                       *                                   
 Model                            157         37                                                        7.84663840E-03                            1_GWF-(2,39089)
 Backtracking                     158                     0          0       23.541014       23.541014                       *                                   
 Model                            158         51                                                        6.52375808E-03                            1_GWF-(2,39089)
 Backtracking                     159                     0          0       19.345398       19.345398                       *                                   
 Model                            159         31                                                        5.62530512E-03                            1_GWF-(2,39089)
 Backtracking                     160                     0          0       17.217560       17.217560                       *                                   
 Model                            160         14                                                        3.30243717E-03                            1_GWF-(2,39291)
 Backtracking                     161                     0          0       8.1173045       8.1173045                       *                                   
 Model                            161         47                                                        3.37418603E-03                            1_GWF-(2,39089)
 Backtracking                     162                     4          0       9.7437660       9.7437660                       *                                   
 Model                            162         21                                                        1.97928708E-03                            1_GWF-(2,37944)
 Backtracking                     163                     0          0       5.9554779       5.9554779                       *                                   
 Model                            163         43                                                        1.80189239E-03                            1_GWF-(2,39291)
 Backtracking                     164                     0          0       5.8472853       5.8472853                       *                                   
 Model                            164         45                                                        1.25894646E-03                            1_GWF-(2,39291)
 Backtracking                     165                     0          0       4.0626019       4.0626019                       *                                   
 Model                            165         21                                                        6.94162639E-04       *                    1_GWF-(2,37944)
 ----------------------------------------------------------------------------------------------------------------------------------------------------------------


 165 CALLS TO NUMERICAL SOLUTION IN TIME STEP 1 STRESS PERIOD 1
 5705 TOTAL ITERATIONS

 MEMORY MANAGER TOTAL STORAGE BY DATA TYPE, IN MEGABYTES
 -------------------------------
                    ALLOCATED   
 DATA TYPE           MEMORY     
 -------------------------------
 Character        1.01880000E-02
 Logical          4.80000000E-05
 Integer          29.717644     
 Real             61.038104     
 -------------------------------
 Total            90.765984     
 Virtual          0.0000000     
 -------------------------------


 
 Run end date and time (yyyy/mm/dd hh:mm:ss): 2026/02/10 21:05:37
 Elapsed run time: 45.904 Seconds
 Normal termination of simulation.
