                                   MODFLOW 6
                U.S. GEOLOGICAL SURVEY MODULAR HYDROLOGIC MODEL
                          GROUNDWATER FLOW MODEL (GWF)
                            VERSION 6.6.0 12/20/2024

   MODFLOW 6 compiled Dec 31 2024 17:10:16 with Intel(R) Fortran Intel(R) 64
   Compiler Classic for applications running on Intel(R) 64, Version 2021.7.0
                             Build 20220726_000000

This software has been approved for release by the U.S. Geological 
Survey (USGS). Although the software has been subjected to rigorous 
review, the USGS reserves the right to update the software as needed 
pursuant to further analysis and review. No warranty, expressed or 
implied, is made by the USGS or the U.S. Government as to the 
functionality of the software and related material nor shall the 
fact of release constitute any such warranty. Furthermore, the 
software is released on condition that neither the USGS nor the U.S. 
Government shall be held liable for any damages resulting from its 
authorized or unauthorized use. Also refer to the USGS Water 
Resources Software User Rights Notice for complete use, copyright, 
and distribution information.


As a work of the United States Government, this USGS product is 
in the public domain within the United States. You can copy, 
modify, distribute, and perform the work, even for commercial 
purposes, all without asking permission. Additionally, USGS 
waives copyright and related rights in the work worldwide 
through CC0 1.0 Universal Public Domain Dedication 
(https://creativecommons.org/publicdomain/zero/1.0/).

The following GNU Lesser General Public License (LGPL) libraries
are used in this USGS product:

    SPARSKIT version 2.0
      ilut, luson, and qsplit 
      (https://www-users.cse.umn.edu/~saad/software/SPARSKIT/)

    RCM - Reverse Cuthill McKee Ordering
      (https://people.math.sc.edu/Burkardt/f_src/rcm/rcm.html)

    BLAS - Basic Linear Algebra Subprograms Level 1
      (https://people.math.sc.edu/Burkardt/f_src/blas1_d/blas1_d.html)

    SPARSEKIT - Sparse Matrix Utility Package
      amux, dperm, dvperm, rperm, and cperm
      (https://people.sc.fsu.edu/~jburkardt/f77_src/sparsekit/sparsekit.html)

The following BSD-3 License libraries are used in this USGS product:

    Modern Fortran DAG Library
      Copyright (c) 2018, Jacob Williams
      All rights reserved.
      (https://github.com/jacobwilliams/daglib)

MODFLOW 6 compiler options: /O2 /heap-arrays:0 /fpe:0 /traceback /nologo /fpp
/c /module:win64\mod_mf6\ /object:win64\obj_mf6\

System command used to initiate simulation:
mf6

MODFLOW was compiled using uniform precision.

Real Variables
  KIND: 8
  TINY (smallest non-zero value):    2.225074-308
  HUGE (largest value):    1.797693+308
  PRECISION: 15
  SIZE IN BITS: 64

Integer Variables
  KIND: 4
  HUGE (largest value): 2147483647
  SIZE IN BITS: 32

Long Integer Variables
  KIND: 8
  HUGE (largest value): 9223372036854775807
  SIZE IN BITS: 64

Logical Variables
  KIND: 4
  SIZE IN BITS: 32
 
 NAMEFILE OPTIONS:
    FLOWS WILL BE SAVED TO BUDGET FILE SPECIFIED IN OUTPUT CONTROL
 END NAMEFILE OPTIONS:

 DISU -- UNSTRUCTURED GRID DISCRETIZATION PACKAGE, VERSION 2 : 3/27/2014 - INPUT READ FROM MEMPATH: __INPUT__/DISU_MODEL/DISU                         


 Setting Discretization Options
    Model length unit [0=UND, 1=FEET, 2=METERS, 3=CENTIMETERS] set as 2
    VERTICAL_OFFSET_TOLERANCE = .000000000000000
 End Setting Discretization Options

 Setting Discretization Dimensions
    NODES = 119446
    NJA = 728472
    NVERT = 477784
 End Setting Discretization Dimensions

 Setting Discretization Griddata
    TOP set from input file
    BOT set from input file
    AREA set from input file
 End Setting Discretization Griddata

 Setting Discretization Connectivity
    IAC set from input file
    JA set from input file
    IHC set from input file
    CL12 set from input file
    HWVA set from input file
    ANGLDEGX set from input file
 End Setting Discretization Connectivity

 Discretization Vertex data loaded
 Discretization Cell2d data loaded

 NPF -- NODE PROPERTY FLOW PACKAGE, VERSION 1, 3/30/2015 INPUT READ FROM MEMPATH: __INPUT__/DISU_MODEL/NPF                          


 IC -- Initial Conditions Package, Version 8, 3/28/2015 input read from mempath: __INPUT__/DISU_MODEL/IC                           


 Setting NPF Options
    Cell-by-cell flow information will be saved to binary file whenever ICBCFL is not zero.
    Specific discharge will be calculated at cell centers and written to DATA-SPDIS in budget file when requested.
 End Setting NPF Options

 Setting NPF Griddata
    ICELLTYPE set from input file
    K set from input file
    K33 not provided.  Setting K33 = K.
    K22 not provided.  Setting K22 = K.
 End Setting NPF Griddata


 WEL   -- WEL PACKAGE, VERSION 8, 2/22/2014 INPUT READ FROM MEMPATH: __INPUT__/DISU_MODEL/WELL_CASEB                   

 PROCESSING WEL BASE OPTIONS
    FLOWS WILL BE SAVED TO BUDGET FILE SPECIFIED IN OUTPUT CONTROL
 END OF WEL BASE OPTIONS

 PROCESSING WEL OPTIONS
 END OF WEL OPTIONS

 PROCESSING WEL BASE DIMENSIONS
    MAXBOUND =   59187
 END OF WEL BASE DIMENSIONS

 RCH   -- RCH PACKAGE, VERSION 8, 2/22/2014 INPUT READ FROM MEMPATH: __INPUT__/DISU_MODEL/RCH                          

 PROCESSING RCH BASE OPTIONS
    FLOWS WILL BE SAVED TO BUDGET FILE SPECIFIED IN OUTPUT CONTROL
    RCH FLOWS WILL BE PRINTED TO LISTING FILE.
 END OF RCH BASE OPTIONS

 PROCESSING RCH OPTIONS
    RECHARGE WILL BE APPLIED TO SPECIFIED CELL.
 END OF RCH OPTIONS

 PROCESSING RCH BASE DIMENSIONS
    MAXBOUND =   59723
 END OF RCH BASE DIMENSIONS

 EVT   -- EVT PACKAGE, VERSION 8, 2/22/2014 INPUT READ FROM MEMPATH: __INPUT__/DISU_MODEL/EVT                          

 PROCESSING EVT BASE OPTIONS
    FLOWS WILL BE SAVED TO BUDGET FILE SPECIFIED IN OUTPUT CONTROL
 END OF EVT BASE OPTIONS

 PROCESSING EVT OPTIONS
 END OF EVT OPTIONS

 PROCESSING EVT BASE DIMENSIONS
    MAXBOUND =   58381
 END OF EVT BASE DIMENSIONS

 PROCESSING EVT DIMENSIONS
    NSEG = 1
 END OF EVT DIMENSIONS

 CHD   -- CHD PACKAGE, VERSION 8, 2/22/2014 INPUT READ FROM MEMPATH: __INPUT__/DISU_MODEL/CHD                          

 PROCESSING CHD BASE OPTIONS
    FLOWS WILL BE SAVED TO BUDGET FILE SPECIFIED IN OUTPUT CONTROL
 END OF CHD BASE OPTIONS

 PROCESSING CHD BASE DIMENSIONS
    MAXBOUND =    2676
 END OF CHD BASE DIMENSIONS
    STRT set from input file
    BINARY GRID INFORMATION WILL BE WRITTEN TO:
      UNIT NUMBER: 1016
      FILE NAME: DISU_model.disu.grb

 OPENED DISU_model.disu.grb
 FILE TYPE:DATA(BINARY)   UNIT 1016   STATUS:REPLACE             
 FORMAT:UNFORMATTED            ACCESS:STREAM              
 ACTION:READWRITE           

      THE LAST TIME STEP WILL BE PRINTED
      THE LAST TIME STEP WILL BE PRINTED
 # File generated by Flopy version 3.9.1 on 04/13/2026 at 16:45:42.

 PROCESSING OC OPTIONS

    BUDGET INFORMATION WILL BE WRITTEN TO:
      UNIT NUMBER: 1017
      FILE NAME: quadtree_caseD.cbc

 OPENED quadtree_caseD.cbc
 FILE TYPE:DATA(BINARY)   UNIT 1017   STATUS:REPLACE             
 FORMAT:UNFORMATTED            ACCESS:STREAM              
 ACTION:READWRITE           

    HEAD INFORMATION WILL BE WRITTEN TO:
      UNIT NUMBER: 1018
      FILE NAME: quadtree_caseD.hds

 OPENED quadtree_caseD.hds
 FILE TYPE:DATA(BINARY)   UNIT 1018   STATUS:REPLACE             
 FORMAT:UNFORMATTED            ACCESS:STREAM              
 ACTION:READWRITE           

 END OF OC OPTIONS

start timestep kper="1" kstp="1" mode="normal"


 BEGIN READING OUTPUT CONTROL FOR STRESS PERIOD 1
      THE LAST TIME STEP WILL BE SAVED
      THE LAST TIME STEP WILL BE SAVED
      THE LAST TIME STEP WILL BE PRINTED

 END READING OUTPUT CONTROL FOR STRESS PERIOD 1

 CELL CONVERSIONS FOR ITER.=2  STEP=1  PERIOD=1   (NODE or LRC)
     DRY             (20790) DRY             (20791) DRY             (20792) DRY             (20793) DRY             (20794)
     DRY             (20795) DRY             (20796) DRY             (20797) DRY             (20798) DRY             (20799)
     DRY             (20800) DRY             (20801) DRY             (20802) DRY             (20803) DRY             (20804)
     DRY             (20805) DRY             (20806) DRY             (20807) DRY             (20808) DRY             (20809)
     DRY             (20810) DRY             (20811) DRY             (20812) DRY             (20813) DRY             (20814)
     DRY             (20815) DRY             (20816) DRY             (20817) DRY             (20818) DRY             (20819)
     DRY             (20820) DRY             (20821) DRY             (20822) DRY             (20823) DRY             (20824)
     DRY             (20825) DRY             (20826) DRY             (20827) DRY             (20828) DRY             (20829)
     DRY             (20830) DRY             (20831) DRY             (20832) DRY             (20833) DRY             (20834)
     DRY             (20835) DRY             (22943) DRY             (22944) DRY             (22945) DRY             (22946)
     DRY             (23234) DRY             (23235) DRY             (23236) DRY             (23237) DRY             (23238)
     DRY             (23239) DRY             (23240) DRY             (23241) DRY             (23242) DRY             (23243)
     DRY             (23244) DRY             (23245) DRY             (23246) DRY             (23247) DRY             (23248)
     DRY             (23249) DRY             (23250) DRY             (23251) DRY             (23252) DRY             (23253)
     DRY             (23254) DRY             (23255) DRY             (23256) DRY             (23257) DRY             (23258)
     DRY             (23259) DRY             (23260) DRY             (23261) DRY             (23262) DRY             (23263)
     DRY             (23264) DRY             (23265) DRY             (23266) DRY             (23267) DRY             (23268)
     DRY             (23269) DRY             (23270) DRY             (23271) DRY             (23272) DRY             (23273)
     DRY             (23274) DRY             (23275) DRY             (23276) DRY             (23277) DRY             (23278)
     DRY             (23279) DRY             (23280) DRY             (23281) DRY             (23282) DRY             (26111)
     DRY             (26112) DRY             (26113) DRY             (26114) DRY             (26115) DRY             (26116)
     DRY             (26117) DRY             (26118) DRY             (26119) DRY             (29824) DRY             (29825)
     DRY             (29826) DRY             (29827) DRY             (29828) DRY             (29829) DRY             (29830)
     DRY             (29831) DRY             (29832) DRY             (29833) DRY             (29834) DRY             (30851)
     DRY             (30852) DRY             (30853) DRY             (30854) DRY             (30855) DRY             (30856)
     DRY             (30857) DRY             (30858) DRY             (31933) DRY             (31934) DRY             (31935)
     DRY             (31936) DRY             (31937) DRY             (31938) DRY             (31939) DRY             (31940)
     DRY             (31941) DRY             (31942) DRY             (34151) DRY             (34152) DRY             (34153)
     DRY             (34154) DRY             (34155) DRY             (34156) DRY             (34157) DRY             (34158)
     DRY             (34159) DRY             (34160) DRY             (34161) DRY             (34162) DRY             (34163)
     DRY             (34164) DRY             (34165) DRY             (34166) DRY             (34167) DRY             (34168)
     DRY             (34169) DRY             (34170) DRY             (34171) DRY             (34172) DRY             (34173)
     DRY             (34174) DRY             (34175) DRY             (34176) DRY             (34177) DRY             (34178)
     DRY             (34179) DRY             (34180) DRY             (34181) DRY             (34182) DRY             (34183)
     DRY             (34184) DRY             (34185) DRY             (34186) DRY             (34187) DRY             (34188)
     DRY             (34189) DRY             (34190) DRY             (34191) DRY             (35196) DRY             (35197)
     DRY             (35198) DRY             (36257) DRY             (36258) DRY             (36259) DRY             (36260)
     DRY             (36261) DRY             (36262) DRY             (36263) DRY             (36264) DRY             (36265)
     DRY             (36266) DRY             (36267) DRY             (36268) DRY             (36269) DRY             (36270)
     DRY             (36271) DRY             (36272) DRY             (36273) DRY             (36274) DRY             (38462)
     DRY             (38463) DRY             (38464) DRY             (38465) DRY             (38466) DRY             (38467)
     DRY             (38468) DRY             (38469) DRY             (38470) DRY             (39592) DRY             (39593)
     DRY             (39594) DRY             (39595) DRY             (39596) DRY             (39597) DRY             (39598)
     DRY             (39599) DRY             (39600) DRY             (39601) DRY             (39602) DRY             (39603)
     DRY             (39604) DRY             (39605) DRY             (39606) DRY             (39607) DRY             (39608)
     DRY             (39609) DRY             (39610) DRY             (39611) DRY             (39612) DRY             (39613)
     DRY             (39614) DRY             (39615) DRY             (39616) DRY             (39617) DRY             (39618)
     DRY             (39619) DRY             (39620) DRY             (39621) DRY             (39622) DRY             (39623)
     DRY             (39624) DRY             (39625) DRY             (40747) DRY             (40748) DRY             (40749)
     DRY             (40750) DRY             (45728) DRY             (45729) DRY             (45730) DRY             (45731)
     DRY             (45732) DRY             (45733) DRY             (45734) DRY             (45735) DRY             (45736)
     DRY             (45737) DRY             (45738) DRY             (45739) DRY             (45740) DRY             (45741)
     DRY             (45742) DRY             (45743) DRY             (45744) DRY             (45745) DRY             (45746)
     DRY             (45747) DRY             (45748) DRY             (45749) DRY             (45750) DRY             (45751)
     DRY             (47019) DRY             (47020) DRY             (47021) DRY             (47022) DRY             (47023)
     DRY             (47024) DRY             (47025) DRY             (47026) DRY             (47027) DRY             (47028)
     DRY             (47029) DRY             (47030) DRY             (47031) DRY             (47032) DRY             (47033)
     DRY             (47034) DRY             (48238) DRY             (48239) DRY             (48240) DRY             (48241)
     DRY             (48242) DRY             (48243) DRY             (48244) DRY             (48245) DRY             (48246)
     DRY             (48247) DRY             (48248) DRY             (48249) DRY             (50660) DRY             (50661)
     DRY             (50662) DRY             (50663) DRY             (50664) DRY             (50665) DRY             (50666)
     DRY             (50667) DRY             (50668) DRY             (50669) DRY             (50670) DRY             (50671)
     DRY             (50672) DRY             (50673) DRY             (50674) DRY             (50675) DRY             (50676)
     DRY             (50677) DRY             (50678) DRY             (50679) DRY             (50680) DRY             (50681)
     DRY             (50682) DRY             (50683) DRY             (51917) DRY             (53131) DRY             (53132)
     DRY             (53133) DRY             (53134) DRY             (53135) DRY             (53136) DRY             (53137)
     DRY             (53138) DRY             (53139) DRY             (53140) DRY             (53141) DRY             (53142)
     DRY             (53143) DRY             (53144) DRY             (53145) DRY             (53146) DRY             (53147)
     DRY             (53148) DRY             (53149) DRY             (53150) DRY             (53151) DRY             (53152)
     DRY             (53153) DRY             (53154) DRY             (53155) DRY             (53156) DRY             (54174)
     DRY             (54175) DRY             (54176) DRY             (54177) DRY             (54178) DRY             (54179)
     DRY             (54180) DRY             (54181) DRY             (54182) DRY             (54183) DRY             (54184)
     DRY             (54185) DRY             (54186) DRY             (54187) DRY             (54188) DRY             (55105)
     DRY             (55106) DRY             (55107) DRY             (55108) DRY             (55109) DRY             (55110)
     DRY             (55111) DRY             (55112) DRY             (55113) DRY             (55114) DRY             (55115)
     DRY             (55116) DRY             (56004) DRY             (56949) DRY             (56950) DRY             (56951)
     DRY             (56952) DRY             (56953) DRY             (56954) DRY             (56955) DRY             (56956)
     DRY             (56957) DRY             (56958) DRY             (56959) DRY             (56960) DRY             (56961)
     DRY             (56962) DRY             (56963) DRY             (56964) DRY             (56965) DRY             (56966)
     DRY             (57718) DRY             (57719) DRY             (57720) DRY             (57721) DRY             (57722)
     DRY             (57723) DRY             (57724) DRY             (57725) DRY             (57726) DRY             (57727)
     DRY             (57728) DRY             (57729) DRY             (57730) DRY             (57731) DRY             (57732)
     DRY             (57733) DRY             (57734) DRY             (57735) DRY             (57736) DRY             (57737)
     DRY             (57738) DRY             (57739) DRY             (57740) DRY             (57741) DRY             (58318)
     DRY             (58319) DRY             (58320) DRY             (58321) DRY             (58322) DRY             (58323)
     DRY             (58324) DRY             (58325) DRY             (58326) DRY             (58327) DRY             (58328)
     DRY             (58329) DRY             (58330) DRY             (58860) DRY             (58861) DRY             (58862)
     DRY             (59170) DRY             (59171) DRY             (59172) DRY             (59173) DRY             (59174)
     DRY             (59175) DRY             (59176) DRY             (59177) DRY             (59178) DRY             (59179)
     DRY             (59180) DRY             (59218) DRY             (59219) DRY             (59220) DRY             (59221)
     DRY             (59222) DRY             (59223) DRY             (59224) DRY             (59225) DRY             (59226)
     DRY             (59227) DRY             (59228) DRY             (59229) DRY             (59230) DRY             (59231)
     DRY             (59232) DRY             (59468) DRY             (59469) DRY             (59470) DRY             (59556)
     DRY             (59557) DRY             (59558) DRY             (59559) DRY             (59560) DRY             (59561)
     DRY             (59562) DRY             (59563) DRY             (59564) DRY             (59565) DRY             (59566)
     DRY             (59567) DRY             (59568) DRY             (59679) DRY             (59680) DRY             (59681)
     DRY             (59682) DRY             (59683) DRY             (59684) DRY             (59685) DRY             (59686)
     DRY             (59687) DRY             (59688) DRY             (59689) DRY             (59690) DRY             (59691)
     DRY             (59692) DRY             (59693) DRY             (59694) DRY             (59695) DRY             (59696)
     DRY             (59697) DRY             (59698) DRY             (59699) DRY             (59700) DRY             (59701)
     DRY             (59702) DRY             (59703) DRY             (59704) DRY             (59705) DRY             (59706)
     DRY             (59707) DRY             (59708) DRY             (59709) DRY             (59710) DRY             (59711)
     DRY             (59712) DRY             (59713) DRY             (59714) DRY             (59715) DRY             (59716)
     DRY             (59717) DRY             (59718) DRY             (59719) DRY             (59720) DRY             (59721)
     DRY             (59722) DRY             (59723)
 UBDSV1 SAVING     FLOW-JA-FACE ON UNIT   1017 AT TIME STEP      1, STRESS PERIOD      1
 UBDSV06 SAVING       DATA-SPDIS IN MODEL DISU_MODEL       PACKAGE NPF             CONNECTED TO MODEL DISU_MODEL       PACKAGE NPF              ON UNIT   1017 AT TIME STEP      1, STRESS PERIOD      1
 UBDSV06 SAVING              WEL IN MODEL DISU_MODEL       PACKAGE DISU_MODEL      CONNECTED TO MODEL DISU_MODEL       PACKAGE WELL_CASEB       ON UNIT   1017 AT TIME STEP      1, STRESS PERIOD      1
 UBDSV06 SAVING              RCH IN MODEL DISU_MODEL       PACKAGE DISU_MODEL      CONNECTED TO MODEL DISU_MODEL       PACKAGE RCH              ON UNIT   1017 AT TIME STEP      1, STRESS PERIOD      1
 UBDSV06 SAVING              EVT IN MODEL DISU_MODEL       PACKAGE DISU_MODEL      CONNECTED TO MODEL DISU_MODEL       PACKAGE EVT              ON UNIT   1017 AT TIME STEP      1, STRESS PERIOD      1
 UBDSV06 SAVING              CHD IN MODEL DISU_MODEL       PACKAGE DISU_MODEL      CONNECTED TO MODEL DISU_MODEL       PACKAGE CHD              ON UNIT   1017 AT TIME STEP      1, STRESS PERIOD      1

 RCH PACKAGE (RCH) FLOW RATES   PERIOD      1   STEP        1
 -----------------------------------------------
   NUMBER   CELLID                    RATE      
 -----------------------------------------------
     1      (1)                   0.0000000     
     2      (2)                   0.0000000     
     3      (3)                   0.0000000     
     4      (4)                   0.0000000     
     5      (5)                   0.0000000     
     6      (6)                   0.0000000     
     7      (7)                   0.0000000     
     8      (8)                   0.0000000     
     9      (9)                   0.0000000     
     10     (10)                  0.0000000     
     11     (11)                  0.0000000     
     12     (12)                  0.0000000     
     13     (13)                  0.0000000     
     14     (14)                  0.0000000     
     15     (15)                  0.0000000     
     16     (16)                  0.0000000     
     17     (17)                  0.0000000     
     18     (18)                  0.0000000     
     19     (19)                  0.0000000     
     20     (20)                  0.0000000     
     21     (21)                  0.0000000     
     22     (22)                  0.0000000     
     23     (23)                  0.0000000     
     24     (24)                  0.0000000     
     25     (25)                  0.0000000     
     26     (26)                  0.0000000     
     27     (27)                  0.0000000     
     28     (28)                  0.0000000     
     29     (29)                  0.0000000     
     30     (30)                  0.0000000     
     31     (31)                  0.0000000     
     32     (32)                  0.0000000     
     33     (33)                  0.0000000     
     34     (34)                  0.0000000     
     35     (35)                  0.0000000     
     36     (36)                  0.0000000     
     37     (37)                  0.0000000     
     38     (38)                  0.0000000     
     39     (39)                  0.0000000     
     40     (40)                  0.0000000     
     41     (41)                  0.0000000     
     42     (42)                  0.0000000     
     43     (43)                  0.0000000     
     44     (44)                  0.0000000     
     45     (45)                  0.0000000     
     46     (46)                  0.0000000     
     47     (47)                  0.0000000     
     48     (48)                  0.0000000     
     49     (49)                  0.0000000     
     50     (50)                  0.0000000     
     51     (51)                  0.0000000     
     52     (52)                  0.0000000     
     53     (53)                  0.0000000     
     54     (54)                  0.0000000     
     55     (55)                  0.0000000     
     56     (56)                  0.0000000     
     57     (57)                  0.0000000     
     58     (58)                  0.0000000     
     59     (59)                  0.0000000     
     60     (60)                  0.0000000     
     61     (61)                  0.0000000     
     62     (62)                  0.0000000     
     63     (63)                  0.0000000     
     64     (64)                  0.0000000     
     65     (65)                  0.0000000     
     66     (66)                  0.0000000     
     67     (67)                  0.0000000     
     68     (68)                  0.0000000     
     69     (69)                  0.0000000     
     70     (70)                  0.0000000     
     71     (71)                  0.0000000     
     72     (72)                  0.0000000     
     73     (73)                  0.0000000     
     74     (74)                  0.0000000     
     75     (75)                  0.0000000     
     76     (76)                  0.0000000     
     77     (77)                  0.0000000     
     78     (78)                  0.0000000     
     79     (79)                  0.0000000     
     80     (80)                  0.0000000     
     81     (81)                  0.0000000     
     82     (82)                  0.0000000     
     83     (83)                  0.0000000     
     84     (84)                  0.0000000     
     85     (85)                  0.0000000     
     86     (86)                  0.0000000     
     87     (87)                  0.0000000     
     88     (88)                  0.0000000     
     89     (89)                  0.0000000     
     90     (90)                  0.0000000     
     91     (91)                  0.0000000     
     92     (92)                  0.0000000     
     93     (93)                  0.0000000     
     94     (94)                  0.0000000     
     95     (95)                  0.0000000     
     96     (96)                  0.0000000     
     97     (97)                  0.0000000     
     98     (98)                  0.0000000     
     99     (99)                  0.0000000     
    100     (100)                 0.0000000     
    101     (101)                 0.0000000     
    102     (102)                 0.0000000     
    103     (103)                 0.0000000     
    104     (104)                 0.0000000     
    105     (105)                 0.0000000     
    106     (106)                 0.0000000     
    107     (107)                 0.0000000     
    108     (108)                 0.0000000     
    109     (109)                 0.0000000     
    110     (110)                 0.0000000     
    111     (111)                 0.0000000     
    112     (112)                 0.0000000     
    113     (113)                 0.0000000     
    114     (114)                 0.0000000     
    115     (115)                 0.0000000     
    116     (116)                 0.0000000     
    117     (117)                 0.0000000     
    118     (118)                 0.0000000     
    119     (119)                 0.0000000     
    120     (120)                 0.0000000     
    121     (121)                 0.0000000     
    122     (122)                 0.0000000     
    123     (123)                 0.0000000     
    124     (124)                 0.0000000     
    125     (125)                 0.0000000     
    126     (126)                 0.0000000     
    127     (127)                 0.0000000     
    128     (128)                 0.0000000     
    129     (129)                 0.0000000     
    130     (130)                 0.0000000     
    131     (131)                 0.0000000     
    132     (132)                 0.0000000     
    133     (133)                 0.0000000     
    134     (134)                 0.0000000     
    135     (135)                 0.0000000     
    136     (136)                 0.0000000     
    137     (137)                 0.0000000     
    138     (138)                 0.0000000     
    139     (139)                 0.0000000     
    140     (140)                 0.0000000     
    141     (141)                 0.0000000     
    142     (142)                 0.0000000     
    143     (143)                 0.0000000     
    144     (144)                 0.0000000     
    145     (145)                 0.0000000     
    146     (146)                 0.0000000     
    147     (147)                 0.0000000     
    148     (148)                 0.0000000     
    149     (149)                 0.0000000     
    150     (150)                 0.0000000     
    151     (151)                 0.0000000     
    152     (152)                 0.0000000     
    153     (153)                 0.0000000     
    154     (154)                 0.0000000     
    155     (155)                 0.0000000     
    156     (156)                 0.0000000     
    157     (157)                 0.0000000     
    158     (158)                 0.0000000     
    159     (159)                 0.0000000     
    160     (160)                 0.0000000     
    161     (161)                 0.0000000     
    162     (162)                 0.0000000     
    163     (163)                 0.0000000     
    164     (164)                 0.0000000     
    165     (165)                 0.0000000     
    166     (166)                 0.0000000     
    167     (167)                 0.0000000     
    168     (168)                 0.0000000     
    169     (169)                 0.0000000     
    170     (170)                 0.0000000     
    171     (171)                 0.0000000     
    172     (172)                 0.0000000     
    173     (173)                 0.0000000     
    174     (174)                 0.0000000     
    175     (175)                 0.0000000     
    176     (176)                 0.0000000     
    177     (177)                 0.0000000     
    178     (178)                 0.0000000     
    179     (179)                 0.0000000     
    180     (180)                 0.0000000     
    181     (181)                 0.0000000     
    182     (182)                 0.0000000     
    183     (183)                 0.0000000     
    184     (184)                 0.0000000     
    185     (185)                 0.0000000     
    186     (186)                 0.0000000     
    187     (187)                 0.0000000     
    188     (188)                 0.0000000     
    189     (189)                 0.0000000     
    190     (190)                 0.0000000     
    191     (191)                 0.0000000     
    192     (192)                 0.0000000     
    193     (193)                 0.0000000     
    194     (194)                 0.0000000     
    195     (195)                 0.0000000     
    196     (196)                 0.0000000     
    197     (197)                 0.0000000     
    198     (198)                 0.0000000     
    199     (199)                 0.0000000     
    200     (200)                 0.0000000     
    201     (201)                 0.0000000     
    202     (202)                 0.0000000     
    203     (203)                 0.0000000     
    204     (204)                 0.0000000     
    205     (205)                 6.12705493E-03
    206     (206)                 0.0000000     
    207     (207)                 0.0000000     
    208     (208)                 0.0000000     
    209     (209)                 0.0000000     
    210     (210)                 0.0000000     
    211     (211)                 0.0000000     
    212     (212)                 0.0000000     
    213     (213)                 0.0000000     
    214     (214)                 0.0000000     
    215     (215)                 0.0000000     
    216     (216)                 0.0000000     
    217     (217)                 0.0000000     
    218     (218)                 0.0000000     
    219     (219)                 0.0000000     
    220     (220)                 0.0000000     
    221     (221)                 0.0000000     
    222     (222)                 1.53710623E-03
    223     (223)                 0.0000000     
    224     (224)                 1.55489010E-03
    225     (225)                 1.56526577E-03
    226     (226)                 0.0000000     
    227     (227)                 0.0000000     
    228     (228)                 1.57639943E-03
    229     (229)                 0.0000000     
    230     (230)                 0.0000000     
    231     (231)                 0.0000000     
    232     (232)                 0.0000000     
    233     (233)                 0.0000000     
    234     (234)                 0.0000000     
    235     (235)                 0.0000000     
    236     (236)                 0.0000000     
    237     (237)                 0.0000000     
    238     (238)                 0.0000000     
    239     (239)                 0.0000000     
    240     (240)                 0.0000000     
    241     (241)                 0.0000000     
    242     (242)                 0.0000000     
    243     (243)                 0.0000000     
    244     (244)                 0.0000000     
    245     (245)                 0.0000000     
    246     (246)                 0.0000000     
    247     (247)                 0.0000000     
    248     (248)                 0.0000000     
    249     (249)                 0.0000000     
    250     (250)                 0.0000000     
    251     (251)                 0.0000000     
    252     (252)                 0.0000000     
    253     (253)                 0.0000000     
    254     (254)                 0.0000000     
    255     (255)                 0.0000000     
    256     (256)                 0.0000000     
    257     (257)                 0.0000000     
    258     (258)                 0.0000000     
    259     (259)                 0.0000000     
    260     (260)                 0.0000000     
    261     (261)                 0.0000000     
    262     (262)                 0.0000000     
    263     (263)                 0.0000000     
    264     (264)                 0.0000000     
    265     (265)                 0.0000000     
    266     (266)                 0.0000000     
    267     (267)                 0.0000000     
    268     (268)                 0.0000000     
    269     (269)                 0.0000000     
    270     (270)                 0.0000000     
    271     (271)                 0.0000000     
    272     (272)                 0.0000000     
    273     (273)                 0.0000000     
    274     (274)                 0.0000000     
    275     (275)                 0.0000000     
    276     (276)                 0.0000000     
    277     (277)                 0.0000000     
    278     (278)                 0.0000000     
    279     (279)                 0.0000000     
    280     (280)                 0.0000000     
    281     (281)                 0.0000000     
    282     (282)                 0.0000000     
    283     (283)                 0.0000000     
    284     (284)                 0.0000000     
    285     (285)                 0.0000000     
    286     (286)                 0.0000000     
    287     (287)                 0.0000000     
    288     (288)                 0.0000000     
    289     (289)                 0.0000000     
    290     (290)                 0.0000000     
    291     (291)                 0.0000000     
    292     (292)                 0.0000000     
    293     (293)                 0.0000000     
    294     (294)                 0.0000000     
    295     (295)                 0.0000000     
    296     (296)                 0.0000000     
    297     (297)                 0.0000000     
    298     (298)                 0.0000000     
    299     (299)                 0.0000000     
    300     (300)                 0.0000000     
    301     (301)                 0.0000000     
    302     (302)                 0.0000000     
    303     (303)                 0.0000000     
    304     (304)                 0.0000000     
    305     (305)                 0.0000000     
    306     (306)                 0.0000000     
    307     (307)                 0.0000000     
    308     (308)                 0.0000000     
    309     (309)                 0.0000000     
    310     (310)                 0.0000000     
    311     (311)                 0.0000000     
    312     (312)                 0.0000000     
    313     (313)                 0.0000000     
    314     (314)                 0.0000000     
    315     (315)                 0.0000000     
    316     (316)                 0.0000000     
    317     (317)                 0.0000000     
    318     (318)                 0.0000000     
    319     (319)                 0.0000000     
    320     (320)                 0.0000000     
    321     (321)                 0.0000000     
    322     (322)                 0.0000000     
    323     (323)                 0.0000000     
    324     (324)                 0.0000000     
    325     (325)                 0.0000000     
    326     (326)                 0.0000000     
    327     (327)                 0.0000000     
    328     (328)                 0.0000000     
    329     (329)                 0.0000000     
    330     (330)                 0.0000000     
    331     (331)                 0.0000000     
    332     (332)                 0.0000000     
    333     (333)                 0.0000000     
    334     (334)                 0.0000000     
    335     (335)                 0.0000000     
    336     (336)                 0.0000000     
    337     (337)                 0.0000000     
    338     (338)                 0.0000000     
    339     (339)                 0.0000000     
    340     (340)                 0.0000000     
    341     (341)                 0.0000000     
    342     (342)                 0.0000000     
    343     (343)                 0.0000000     
    344     (344)                 0.0000000     
    345     (345)                 0.0000000     
    346     (346)                 0.0000000     
    347     (347)                 0.0000000     
    348     (348)                 0.0000000     
    349     (349)                 0.0000000     
    350     (350)                 0.0000000     
    351     (351)                 0.0000000     
    352     (352)                 0.0000000     
    353     (353)                 0.0000000     
    354     (354)                 0.0000000     
    355     (355)                 0.0000000     
    356     (356)                 0.0000000     
    357     (357)                 1.69741127E-03
    358     (358)                 1.72607487E-03
    359     (359)                 1.71930558E-03
    360     (360)                 0.0000000     
    361     (361)                 0.0000000     
    362     (362)                 0.0000000     
    363     (363)                 0.0000000     
    364     (364)                 0.0000000     
    365     (365)                 0.0000000     
    366     (366)                 0.0000000     
    367     (367)                 0.0000000     
    368     (368)                 0.0000000     
    369     (369)                 0.0000000     
    370     (370)                 0.0000000     
    371     (371)                 1.54696200E-03
    372     (372)                 6.34628766E-03
    373     (373)                 6.32122536E-03
    374     (374)                 0.0000000     
    375     (375)                 6.56503892E-03
    376     (376)                 6.79428675E-03
    377     (377)                 6.75041165E-03
    378     (378)                 2.64369072E-02
    379     (379)                 0.0000000     
    380     (380)                 1.52607389E-03
    381     (381)                 1.54615369E-03
    382     (382)                 1.54665318E-03
    383     (383)                 6.15800101E-03
    384     (384)                 6.31513374E-03
    385     (385)                 6.32835908E-03
    386     (386)                 6.22492789E-03
    387     (387)                 6.28044746E-03
    388     (388)                 6.39673486E-03
    389     (389)                 1.59745668E-03
    390     (390)                 1.60490213E-03
    391     (391)                 1.61920153E-03
    392     (392)                 1.62624680E-03
    393     (393)                 2.65632277E-02
    394     (394)                 6.58012743E-03
    395     (395)                 1.64160458E-03
    396     (396)                 1.64822815E-03
    397     (397)                 1.66458796E-03
    398     (398)                 1.67077054E-03
    399     (399)                 6.77252906E-03
    400     (400)                 6.81053312E-03
    401     (401)                 6.35187071E-03
    402     (402)                 6.43562479E-03
    403     (403)                 1.61322519E-03
    404     (404)                 1.62232060E-03
    405     (405)                 1.63412428E-03
    406     (406)                 1.64273436E-03
    407     (407)                 6.58766349E-03
    408     (408)                 1.61736827E-03
    409     (409)                 1.62956996E-03
    410     (410)                 1.63495701E-03
    411     (411)                 1.64663582E-03
    412     (412)                 1.64205433E-03
    413     (413)                 1.65472586E-03
    414     (414)                 1.65858514E-03
    415     (415)                 1.67071364E-03
    416     (416)                 6.67147683E-03
    417     (417)                 6.76007726E-03
    418     (418)                 1.65563645E-03
    419     (419)                 1.66373600E-03
    420     (420)                 1.67768860E-03
    421     (421)                 1.68525512E-03
    422     (422)                 6.74897270E-03
    423     (423)                 6.85964859E-03
    424     (424)                 6.91744824E-03
    425     (425)                 2.77518397E-02
    426     (426)                 6.72566951E-03
    427     (427)                 0.0000000     
    428     (428)                 6.85077056E-03
    429     (429)                 6.94135589E-03
    430     (430)                 0.0000000     
    431     (431)                 0.0000000     
    432     (432)                 7.03013477E-03
    433     (433)                 0.0000000     
    434     (434)                 2.83518178E-02
    435     (435)                 2.89430292E-02
    436     (436)                 0.0000000     
    437     (437)                 0.0000000     
    438     (438)                 0.0000000     
    439     (439)                 0.0000000     
    440     (440)                 0.0000000     
    441     (441)                 0.0000000     
    442     (442)                 0.0000000     
    443     (443)                 0.0000000     
    444     (444)                 0.0000000     
    445     (445)                 0.0000000     
    446     (446)                 0.0000000     
    447     (447)                 0.0000000     
    448     (448)                 0.0000000     
    449     (449)                 0.0000000     
    450     (450)                 0.0000000     
    451     (451)                 0.0000000     
    452     (452)                 0.0000000     
    453     (453)                 0.0000000     
    454     (454)                 0.0000000     
    455     (455)                 0.0000000     
    456     (456)                 2.94919243E-02
    457     (457)                 0.0000000     
    458     (458)                 0.0000000     
    459     (459)                 7.49695446E-03
    460     (460)                 7.55064004E-03
    461     (461)                 0.0000000     
    462     (462)                 0.0000000     
    463     (463)                 0.0000000     
    464     (464)                 0.0000000     
    465     (465)                 0.0000000     
    466     (466)                 0.0000000     
    467     (467)                 0.0000000     
    468     (468)                 0.0000000     
    469     (469)                 0.0000000     
    470     (470)                 0.0000000     
    471     (471)                 0.0000000     
    472     (472)                 0.0000000     
    473     (473)                 0.0000000     
    474     (474)                 0.0000000     
    475     (475)                 0.0000000     
    476     (476)                 0.0000000     
    477     (477)                 0.0000000     
    478     (478)                 0.0000000     
    479     (479)                 0.0000000     
    480     (480)                 0.0000000     
    481     (481)                 0.0000000     
    482     (482)                 0.0000000     
    483     (483)                 0.0000000     
    484     (484)                 0.0000000     
    485     (485)                 0.0000000     
    486     (486)                 0.0000000     
    487     (487)                 0.0000000     
    488     (488)                 0.0000000     
    489     (489)                 0.0000000     
    490     (490)                 0.0000000     
    491     (491)                 0.0000000     
    492     (492)                 0.0000000     
    493     (493)                 0.0000000     
    494     (494)                 0.0000000     
    495     (495)                 0.0000000     
    496     (496)                 0.0000000     
    497     (497)                 0.0000000     
    498     (498)                 0.0000000     
    499     (499)                 0.0000000     
    500     (500)                 0.0000000     
    501     (501)                 0.0000000     
    502     (502)                 0.0000000     
    503     (503)                 0.0000000     
    504     (504)                 0.0000000     
    505     (505)                 0.0000000     
    506     (506)                 0.0000000     
    507     (507)                 0.0000000     
    508     (508)                 3.03649079E-02
    509     (509)                 0.0000000     
    510     (510)                 0.0000000     
    511     (511)                 0.0000000     
    512     (512)                 0.0000000     
    513     (513)                 7.61622223E-03
    514     (514)                 7.63712355E-03
    515     (515)                 7.66036851E-03
    516     (516)                 7.67858247E-03
    517     (517)                 7.65816887E-03
    518     (518)                 7.67892826E-03
    519     (519)                 0.0000000     
    520     (520)                 3.08077978E-02
    521     (521)                 3.08261767E-02
    522     (522)                 3.08945404E-02
    523     (523)                 0.0000000     
    524     (524)                 0.0000000     
    525     (525)                 0.0000000     
    526     (526)                 0.0000000     
    527     (527)                 0.0000000     
    528     (528)                 0.0000000     
    529     (529)                 0.0000000     
    530     (530)                 0.0000000     
    531     (531)                 0.0000000     
    532     (532)                 0.0000000     
    533     (533)                 0.0000000     
    534     (534)                 0.0000000     
    535     (535)                 0.0000000     
    536     (536)                 0.0000000     
    537     (537)                 0.0000000     
    538     (538)                 0.0000000     
    539     (539)                 0.0000000     
    540     (540)                 0.0000000     
    541     (541)                 0.0000000     
    542     (542)                 0.0000000     
    543     (543)                 0.0000000     
    544     (544)                 0.0000000     
    545     (545)                 0.0000000     
    546     (546)                 0.0000000     
    547     (547)                 0.0000000     
    548     (548)                 0.0000000     
    549     (549)                 0.0000000     
    550     (550)                 0.0000000     
    551     (551)                 7.75848397E-03
    552     (552)                 7.74442724E-03
    553     (553)                 7.64493155E-03
    554     (554)                 7.61931922E-03
    555     (555)                 7.72883855E-03
    556     (556)                 7.71191748E-03
    557     (557)                 0.0000000     
    558     (558)                 0.0000000     
    559     (559)                 0.0000000     
    560     (560)                 7.40930808E-03
    561     (561)                 7.36692378E-03
    562     (562)                 3.05245483E-02
    563     (563)                 7.53260850E-03
    564     (564)                 1.86910343E-03
    565     (565)                 1.86482934E-03
    566     (566)                 1.88556586E-03
    567     (567)                 1.88201221E-03
    568     (568)                 7.65547394E-03
    569     (569)                 1.90198074E-03
    570     (570)                 1.89914526E-03
    571     (571)                 1.91831206E-03
    572     (572)                 1.91619003E-03
    573     (573)                 0.0000000     
    574     (574)                 7.12427706E-03
    575     (575)                 7.32390711E-03
    576     (576)                 7.28117942E-03
    577     (577)                 1.76090362E-03
    578     (578)                 1.75416683E-03
    579     (579)                 1.78142704E-03
    580     (580)                 1.77537130E-03
    581     (581)                 1.74768724E-03
    582     (582)                 1.74153015E-03
    583     (583)                 1.76954822E-03
    584     (584)                 1.76401589E-03
    585     (585)                 7.23988202E-03
    586     (586)                 7.20136080E-03
    587     (587)                 1.86054168E-03
    588     (588)                 1.85626316E-03
    589     (589)                 1.87845424E-03
    590     (590)                 1.87491059E-03
    591     (591)                 1.85201889E-03
    592     (592)                 1.84783654E-03
    593     (593)                 1.87140167E-03
    594     (594)                 1.86794977E-03
    595     (595)                 1.89631470E-03
    596     (596)                 1.89350365E-03
    597     (597)                 1.91408209E-03
    598     (598)                 1.91199877E-03
    599     (599)                 1.89072783E-03
    600     (600)                 1.88800417E-03
    601     (601)                 1.90995118E-03
    602     (602)                 1.90795086E-03
    603     (603)                 1.84374620E-03
    604     (604)                 1.83978020E-03
    605     (605)                 1.86457896E-03
    606     (606)                 1.86131494E-03
    607     (607)                 1.83597279E-03
    608     (608)                 1.83235977E-03
    609     (609)                 1.85818486E-03
    610     (610)                 1.85521694E-03
    611     (611)                 1.88535072E-03
    612     (612)                 1.88278661E-03
    613     (613)                 1.90600997E-03
    614     (614)                 1.90414101E-03
    615     (615)                 1.88033185E-03
    616     (616)                 1.87800713E-03
    617     (617)                 1.90235694E-03
    618     (618)                 1.90067100E-03
    619     (619)                 6.97875821E-03
    620     (620)                 6.94245683E-03
    621     (621)                 7.16711060E-03
    622     (622)                 7.13867240E-03
    623     (623)                 6.91548979E-03
    624     (624)                 6.89938938E-03
    625     (625)                 7.11748705E-03
    626     (626)                 7.10472619E-03
    627     (627)                 7.35705333E-03
    628     (628)                 7.33661127E-03
    629     (629)                 7.54641229E-03
    630     (630)                 7.53395238E-03
    631     (631)                 1.81848159E-03
    632     (632)                 1.81677965E-03
    633     (633)                 1.84381024E-03
    634     (634)                 1.84240154E-03
    635     (635)                 1.81550028E-03
    636     (636)                 1.82789107E-03
    637     (637)                 1.85488266E-03
    638     (638)                 1.85408240E-03
    639     (639)                 1.86906418E-03
    640     (640)                 1.86794760E-03
    641     (641)                 1.89417391E-03
    642     (642)                 1.89334699E-03
    643     (643)                 1.88081209E-03
    644     (644)                 1.88013814E-03
    645     (645)                 1.90653388E-03
    646     (646)                 1.90598451E-03
    647     (647)                 2.81970925E-02
    648     (648)                 6.97123494E-03
    649     (649)                 7.00247555E-03
    650     (650)                 7.17352238E-03
    651     (651)                 1.78536708E-03
    652     (652)                 1.78914213E-03
    653     (653)                 1.81012434E-03
    654     (654)                 1.81339487E-03
    655     (655)                 7.36215389E-03
    656     (656)                 7.36597675E-03
    657     (657)                 7.57073920E-03
    658     (658)                 7.57242309E-03
    659     (659)                 7.37675015E-03
    660     (660)                 1.83489705E-03
    661     (661)                 1.83766101E-03
    662     (662)                 1.85961040E-03
    663     (663)                 1.86186803E-03
    664     (664)                 7.57843934E-03
    665     (665)                 1.88419276E-03
    666     (666)                 1.88594641E-03
    667     (667)                 1.90857601E-03
    668     (668)                 1.90983001E-03
    669     (669)                 7.04301585E-03
    670     (670)                 7.09089433E-03
    671     (671)                 1.79338795E-03
    672     (672)                 1.79805412E-03
    673     (673)                 1.81708129E-03
    674     (674)                 1.82114098E-03
    675     (675)                 7.26710571E-03
    676     (676)                 2.90064240E-02
    677     (677)                 1.84078594E-03
    678     (678)                 1.84423703E-03
    679     (679)                 1.86443182E-03
    680     (680)                 1.86727484E-03
    681     (681)                 7.44394059E-03
    682     (682)                 1.88795178E-03
    683     (683)                 1.89018977E-03
    684     (684)                 1.91128184E-03
    685     (685)                 1.91292021E-03
    686     (686)                 7.61938137E-03
    687     (687)                 3.02832056E-02
    688     (688)                 2.94263413E-02
    689     (689)                 2.98475000E-02
    690     (690)                 3.05170091E-02
    691     (691)                 7.61572373E-03
    692     (692)                 7.65178420E-03
    693     (693)                 7.73465241E-03
    694     (694)                 1.93158427E-03
    695     (695)                 1.93277216E-03
    696     (696)                 1.94306621E-03
    697     (697)                 1.94596929E-03
    698     (698)                 3.02068486E-02
    699     (699)                 3.05683067E-02
    700     (700)                 7.67756997E-03
    701     (701)                 7.71178344E-03
    702     (702)                 1.93627586E-03
    703     (703)                 1.93975635E-03
    704     (704)                 1.94888055E-03
    705     (705)                 1.95179140E-03
    706     (706)                 7.80215146E-03
    707     (707)                 3.12002779E-02
    708     (708)                 0.12508709    
    709     (709)                 0.12666480    
    710     (710)                 0.0000000     
    711     (711)                 0.0000000     
    712     (712)                 0.0000000     
    713     (713)                 0.0000000     
    714     (714)                 0.0000000     
    715     (715)                 0.0000000     
    716     (716)                 0.0000000     
    717     (717)                 0.0000000     
    718     (718)                 0.0000000     
    719     (719)                 0.0000000     
    720     (720)                 0.0000000     
    721     (721)                 0.0000000     
    722     (722)                 0.0000000     
    723     (723)                 0.0000000     
    724     (724)                 0.0000000     
    725     (725)                 0.0000000     
    726     (726)                 0.0000000     
    727     (727)                 0.0000000     
    728     (728)                 0.0000000     
    729     (729)                 0.0000000     
    730     (730)                 0.0000000     
    731     (731)                 0.0000000     
    732     (732)                 0.0000000     
    733     (733)                 0.0000000     
    734     (734)                 0.0000000     
    735     (735)                 0.0000000     
    736     (736)                 0.0000000     
    737     (737)                 0.0000000     
    738     (738)                 0.0000000     
    739     (739)                 0.0000000     
    740     (740)                 0.0000000     
    741     (741)                 0.0000000     
    742     (742)                 0.0000000     
    743     (743)                 0.0000000     
    744     (744)                 0.0000000     
    745     (745)                 0.0000000     
    746     (746)                 0.0000000     
    747     (747)                 0.0000000     
    748     (748)                 0.0000000     
    749     (749)                 0.0000000     
    750     (750)                 0.0000000     
    751     (751)                 0.0000000     
    752     (752)                 0.0000000     
    753     (753)                 0.0000000     
    754     (754)                 0.0000000     
    755     (755)                 0.0000000     
    756     (756)                 0.0000000     
    757     (757)                 0.0000000     
    758     (758)                 0.0000000     
    759     (759)                 0.0000000     
    760     (760)                 0.0000000     
    761     (761)                 0.0000000     
    762     (762)                 0.0000000     
    763     (763)                 0.0000000     
    764     (764)                 0.0000000     
    765     (765)                 0.0000000     
    766     (766)                 0.0000000     
    767     (767)                 0.0000000     
    768     (768)                 0.0000000     
    769     (769)                 0.0000000     
    770     (770)                 0.0000000     
    771     (771)                 0.0000000     
    772     (772)                 0.0000000     
    773     (773)                 0.0000000     
    774     (774)                 0.0000000     
    775     (775)                 0.0000000     
    776     (776)                 0.0000000     
    777     (777)                 0.0000000     
    778     (778)                 0.0000000     
    779     (779)                 0.0000000     
    780     (780)                 0.0000000     
    781     (781)                 0.0000000     
    782     (782)                 0.0000000     
    783     (783)                 0.0000000     
    784     (784)                 0.0000000     
    785     (785)                 0.0000000     
    786     (786)                 0.0000000     
    787     (787)                 0.0000000     
    788     (788)                 0.0000000     
    789     (789)                 0.0000000     
    790     (790)                 0.0000000     
    791     (791)                 0.0000000     
    792     (792)                 0.0000000     
    793     (793)                 0.0000000     
    794     (794)                 0.0000000     
    795     (795)                 0.0000000     
    796     (796)                 0.0000000     
    797     (797)                 0.0000000     
    798     (798)                 0.0000000     
    799     (799)                 0.0000000     
    800     (800)                 0.0000000     
    801     (801)                 0.0000000     
    802     (802)                 0.0000000     
    803     (803)                 1.87264511E-03
    804     (804)                 0.0000000     
    805     (805)                 0.0000000     
    806     (806)                 1.87112504E-03
    807     (807)                 1.86960928E-03
    808     (808)                 1.87302969E-03
    809     (809)                 1.87139830E-03
    810     (810)                 1.87191397E-03
    811     (811)                 1.87015040E-03
    812     (812)                 1.86974997E-03
    813     (813)                 1.86810774E-03
    814     (814)                 1.86837075E-03
    815     (815)                 1.86659899E-03
    816     (816)                 0.0000000     
    817     (817)                 0.0000000     
    818     (818)                 1.86812007E-03
    819     (819)                 1.86667960E-03
    820     (820)                 1.86714774E-03
    821     (821)                 1.86597645E-03
    822     (822)                 1.86530976E-03
    823     (823)                 1.86403198E-03
    824     (824)                 1.86649483E-03
    825     (825)                 1.86493439E-03
    826     (826)                 1.86485935E-03
    827     (827)                 1.86317599E-03
    828     (828)                 1.86344933E-03
    829     (829)                 1.86206209E-03
    830     (830)                 1.86157284E-03
    831     (831)                 1.86007339E-03
    832     (832)                 0.0000000     
    833     (833)                 0.0000000     
    834     (834)                 0.0000000     
    835     (835)                 0.0000000     
    836     (836)                 0.0000000     
    837     (837)                 0.0000000     
    838     (838)                 0.0000000     
    839     (839)                 0.0000000     
    840     (840)                 1.86499818E-03
    841     (841)                 1.86407904E-03
    842     (842)                 1.86286703E-03
    843     (843)                 1.86193739E-03
    844     (844)                 7.44737701E-03
    845     (845)                 1.86079442E-03
    846     (846)                 1.85976463E-03
    847     (847)                 1.85870039E-03
    848     (848)                 1.85756783E-03
    849     (849)                 7.42898319E-03
    850     (850)                 2.97319515E-02
    851     (851)                 0.0000000     
    852     (852)                 0.0000000     
    853     (853)                 0.0000000     
    854     (854)                 0.0000000     
    855     (855)                 0.0000000     
    856     (856)                 0.0000000     
    857     (857)                 0.0000000     
    858     (858)                 0.0000000     
    859     (859)                 0.0000000     
    860     (860)                 0.0000000     
    861     (861)                 1.86492194E-03
    862     (862)                 1.86552436E-03
    863     (863)                 1.86875172E-03
    864     (864)                 1.86976759E-03
    865     (865)                 1.86634201E-03
    866     (866)                 1.86737639E-03
    867     (867)                 0.0000000     
    868     (868)                 0.0000000     
    869     (869)                 1.87328536E-03
    870     (870)                 1.87466485E-03
    871     (871)                 7.51256894E-03
    872     (872)                 1.87098746E-03
    873     (873)                 1.87240887E-03
    874     (874)                 1.86862687E-03
    875     (875)                 1.87009083E-03
    876     (876)                 7.49519949E-03
    877     (877)                 7.44587901E-03
    878     (878)                 7.45249432E-03
    879     (879)                 7.42536718E-03
    880     (880)                 7.43207479E-03
    881     (881)                 7.46286817E-03
    882     (882)                 7.47690945E-03
    883     (883)                 7.44295818E-03
    884     (884)                 7.45791384E-03
    885     (885)                 3.01138345E-02
    886     (886)                 3.02772694E-02
    887     (887)                 7.49439525E-03
    888     (888)                 7.51498812E-03
    889     (889)                 7.47669313E-03
    890     (890)                 7.49892205E-03
    891     (891)                 7.53825822E-03
    892     (892)                 7.56370925E-03
    893     (893)                 1.88031871E-03
    894     (894)                 1.88356720E-03
    895     (895)                 1.87846433E-03
    896     (896)                 1.88184382E-03
    897     (897)                 1.88695518E-03
    898     (898)                 1.89046471E-03
    899     (899)                 1.88537027E-03
    900     (900)                 1.88902500E-03
    901     (901)                 7.60845722E-03
    902     (902)                 1.90685745E-03
    903     (903)                 1.90971494E-03
    904     (904)                 1.90605999E-03
    905     (905)                 1.90907192E-03
    906     (906)                 7.59993608E-03
    907     (907)                 1.90522060E-03
    908     (908)                 1.90838920E-03
    909     (909)                 1.90434368E-03
    910     (910)                 1.90767099E-03
    911     (911)                 1.91258091E-03
    912     (912)                 1.91544131E-03
    913     (913)                 1.91209648E-03
    914     (914)                 1.91511920E-03
    915     (915)                 7.67863929E-03
    916     (916)                 1.91157448E-03
    917     (917)                 1.91476153E-03
    918     (918)                 1.91101895E-03
    919     (919)                 1.91437219E-03
    920     (920)                 1.91793599E-03
    921     (921)                 1.92108409E-03
    922     (922)                 1.91771598E-03
    923     (923)                 1.92103620E-03
    924     (924)                 7.59080521E-03
    925     (925)                 1.90343418E-03
    926     (926)                 1.90692212E-03
    927     (927)                 1.90249771E-03
    928     (928)                 1.90614798E-03
    929     (929)                 7.58125253E-03
    930     (930)                 7.61199671E-03
    931     (931)                 1.91043453E-03
    932     (932)                 1.91395563E-03
    933     (933)                 1.90982643E-03
    934     (934)                 1.91351682E-03
    935     (935)                 1.91747026E-03
    936     (936)                 1.92096394E-03
    937     (937)                 1.91720354E-03
    938     (938)                 1.92087185E-03
    939     (939)                 1.90920039E-03
    940     (940)                 1.91306123E-03
    941     (941)                 1.90856272E-03
    942     (942)                 1.91259494E-03
    943     (943)                 7.67497762E-03
    944     (944)                 7.70142238E-03
    945     (945)                 7.72322731E-03
    946     (946)                 7.70335552E-03
    947     (947)                 7.72800825E-03
    948     (948)                 3.09740125E-02
    949     (949)                 7.70489847E-03
    950     (950)                 7.73243056E-03
    951     (951)                 7.70618280E-03
    952     (952)                 7.73660895E-03
    953     (953)                 7.77194289E-03
    954     (954)                 7.79723735E-03
    955     (955)                 1.94253014E-03
    956     (956)                 1.94607546E-03
    957     (957)                 1.94331078E-03
    958     (958)                 1.94704299E-03
    959     (959)                 1.94952162E-03
    960     (960)                 1.95286194E-03
    961     (961)                 1.95067722E-03
    962     (962)                 1.95420700E-03
    963     (963)                 3.11193428E-02
    964     (964)                 3.12330862E-02
    965     (965)                 7.79214148E-03
    966     (966)                 7.81308454E-03
    967     (967)                 7.80557177E-03
    968     (968)                 7.82960393E-03
    969     (969)                 3.14067407E-02
    970     (970)                 3.13133468E-02
    971     (971)                 3.13393313E-02
    972     (972)                 3.15188214E-02
    973     (973)                 7.88447682E-03
    974     (974)                 7.89527494E-03
    975     (975)                 7.91841993E-03
    976     (976)                 7.93328313E-03
    977     (977)                 3.13614950E-02
    978     (978)                 3.14534361E-02
    979     (979)                 7.90481690E-03
    980     (980)                 7.91334141E-03
    981     (981)                 1.98339075E-03
    982     (982)                 1.98494155E-03
    983     (983)                 1.98848758E-03
    984     (984)                 1.99031613E-03
    985     (985)                 1.98644954E-03
    986     (986)                 1.98792418E-03
    987     (987)                 1.99211261E-03
    988     (988)                 1.99388720E-03
    989     (989)                 7.92111453E-03
    990     (990)                 7.95177262E-03
    991     (991)                 7.97329815E-03
    992     (992)                 8.00950245E-03
    993     (993)                 3.14338029E-02
    994     (994)                 3.14033150E-02
    995     (995)                 3.19838994E-02
    996     (996)                 3.20721079E-02
    997     (997)                 3.13697847E-02
    998     (998)                 7.77686435E-03
    999     (999)                 7.76816444E-03
    1000    (1000)                7.89582078E-03
    1001    (1001)                7.89789972E-03
    1002    (1002)                3.21774511E-02
    1003    (1003)                3.23053845E-02
    1004    (1004)                1.93171710E-03
    1005    (1005)                1.93035423E-03
    1006    (1006)                1.94918222E-03
    1007    (1007)                1.94853019E-03
    1008    (1008)                7.75210828E-03
    1009    (1009)                7.90069848E-03
    1010    (1010)                7.90411683E-03
    1011    (1011)                7.74501803E-03
    1012    (1012)                7.73868435E-03
    1013    (1013)                7.90794693E-03
    1014    (1014)                7.91187977E-03
    1015    (1015)                3.24533498E-02
    1016    (1016)                3.26067621E-02
    1017    (1017)                7.73317711E-03
    1018    (1018)                7.72855311E-03
    1019    (1019)                7.91553012E-03
    1020    (1020)                7.91848115E-03
    1021    (1021)                1.91907327E-03
    1022    (1022)                1.93254627E-03
    1023    (1023)                1.94369970E-03
    1024    (1024)                1.95744900E-03
    1025    (1025)                1.93197895E-03
    1026    (1026)                1.93155192E-03
    1027    (1027)                1.95708255E-03
    1028    (1028)                1.95677513E-03
    1029    (1029)                7.97622981E-03
    1030    (1030)                7.97562993E-03
    1031    (1031)                3.27382539E-02
    1032    (1032)                3.30257422E-02
    1033    (1033)                1.93126864E-03
    1034    (1034)                1.93113195E-03
    1035    (1035)                1.95652814E-03
    1036    (1036)                1.95634387E-03
    1037    (1037)                1.93114401E-03
    1038    (1038)                1.93130622E-03
    1039    (1039)                1.95622538E-03
    1040    (1040)                1.95617643E-03
    1041    (1041)                1.98138119E-03
    1042    (1042)                1.98114961E-03
    1043    (1043)                2.00577136E-03
    1044    (1044)                2.00549286E-03
    1045    (1045)                1.98090257E-03
    1046    (1046)                1.98064615E-03
    1047    (1047)                2.00511964E-03
    1048    (1048)                2.00466007E-03
    1049    (1049)                7.77633222E-03
    1050    (1050)                7.77952559E-03
    1051    (1051)                7.96842867E-03
    1052    (1052)                7.96495013E-03
    1053    (1053)                8.16491645E-03
    1054    (1054)                8.16046987E-03
    1055    (1055)                8.34642942E-03
    1056    (1056)                8.34011451E-03
    1057    (1057)                3.29436931E-02
    1058    (1058)                7.78460688E-03
    1059    (1059)                7.79158012E-03
    1060    (1060)                7.96161319E-03
    1061    (1061)                7.95888763E-03
    1062    (1062)                3.15271189E-02
    1063    (1063)                3.28234239E-02
    1064    (1064)                3.26925085E-02
    1065    (1065)                3.15803065E-02
    1066    (1066)                7.85158660E-03
    1067    (1067)                1.95675067E-03
    1068    (1068)                1.95904658E-03
    1069    (1069)                1.97028055E-03
    1070    (1070)                1.97197850E-03
    1071    (1071)                7.95666224E-03
    1072    (1072)                7.96251778E-03
    1073    (1073)                8.08827080E-03
    1074    (1074)                8.08097789E-03
    1075    (1075)                8.21273784E-03
    1076    (1076)                8.19583919E-03
    1077    (1077)                8.06699179E-03
    1078    (1078)                8.06356697E-03
    1079    (1079)                2.03742538E-03
    1080    (1080)                2.03601392E-03
    1081    (1081)                2.05061320E-03
    1082    (1082)                2.04865550E-03
    1083    (1083)                2.03475766E-03
    1084    (1084)                2.03365528E-03
    1085    (1085)                2.04686883E-03
    1086    (1086)                2.04525291E-03
    1087    (1087)                1.96137260E-03
    1088    (1088)                1.96372064E-03
    1089    (1089)                1.97372807E-03
    1090    (1090)                1.97552169E-03
    1091    (1091)                7.89115211E-03
    1092    (1092)                7.96974821E-03
    1093    (1093)                7.97813781E-03
    1094    (1094)                3.18188936E-02
    1095    (1095)                8.06213744E-03
    1096    (1096)                8.06252116E-03
    1097    (1097)                2.03270342E-03
    1098    (1098)                2.03189705E-03
    1099    (1099)                2.04380512E-03
    1100    (1100)                2.04252096E-03
    1101    (1101)                2.03122977E-03
    1102    (1102)                2.03069406E-03
    1103    (1103)                2.04139427E-03
    1104    (1104)                2.04041761E-03
    1105    (1105)                8.06447694E-03
    1106    (1106)                8.06772849E-03
    1107    (1107)                8.13876628E-03
    1108    (1108)                8.13564768E-03
    1109    (1109)                3.19266368E-02
    1110    (1110)                3.20300506E-02
    1111    (1111)                3.24175007E-02
    1112    (1112)                3.24410222E-02
    1113    (1113)                0.12929520    
    1114    (1114)                0.12955195    
    1115    (1115)                0.12942532    
    1116    (1116)                0.12876305    
    1117    (1117)                0.0000000     
    1118    (1118)                0.0000000     
    1119    (1119)                0.0000000     
    1120    (1120)                0.0000000     
    1121    (1121)                0.0000000     
    1122    (1122)                0.0000000     
    1123    (1123)                0.0000000     
    1124    (1124)                0.0000000     
    1125    (1125)                0.0000000     
    1126    (1126)                0.0000000     
    1127    (1127)                0.0000000     
    1128    (1128)                0.0000000     
    1129    (1129)                0.0000000     
    1130    (1130)                0.0000000     
    1131    (1131)                0.0000000     
    1132    (1132)                0.0000000     
    1133    (1133)                0.0000000     
    1134    (1134)                0.0000000     
    1135    (1135)                0.0000000     
    1136    (1136)                0.0000000     
    1137    (1137)                0.0000000     
    1138    (1138)                0.0000000     
    1139    (1139)                0.0000000     
    1140    (1140)                0.0000000     
    1141    (1141)                0.0000000     
    1142    (1142)                0.0000000     
    1143    (1143)                0.0000000     
    1144    (1144)                0.0000000     
    1145    (1145)                0.0000000     
    1146    (1146)                0.0000000     
    1147    (1147)                0.0000000     
    1148    (1148)                0.0000000     
    1149    (1149)                0.0000000     
    1150    (1150)                0.0000000     
    1151    (1151)                0.0000000     
    1152    (1152)                0.0000000     
    1153    (1153)                0.0000000     
    1154    (1154)                0.0000000     
    1155    (1155)                0.0000000     
    1156    (1156)                0.0000000     
    1157    (1157)                0.0000000     
    1158    (1158)                0.0000000     
    1159    (1159)                0.0000000     
    1160    (1160)                0.0000000     
    1161    (1161)                0.0000000     
    1162    (1162)                0.0000000     
    1163    (1163)                0.0000000     
    1164    (1164)                0.0000000     
    1165    (1165)                0.0000000     
    1166    (1166)                0.0000000     
    1167    (1167)                0.0000000     
    1168    (1168)                0.0000000     
    1169    (1169)                0.0000000     
    1170    (1170)                0.0000000     
    1171    (1171)                0.0000000     
    1172    (1172)                0.0000000     
    1173    (1173)                0.0000000     
    1174    (1174)                0.0000000     
    1175    (1175)                0.0000000     
    1176    (1176)                0.0000000     
    1177    (1177)                0.0000000     
    1178    (1178)                0.0000000     
    1179    (1179)                0.0000000     
[...]
   59367    (59367)               2.13008467E-03
   59368    (59368)               2.13055505E-03
   59369    (59369)               2.13109928E-03
   59370    (59370)               2.13156220E-03
   59371    (59371)               2.12901964E-03
   59372    (59372)               2.12957053E-03
   59373    (59373)               2.13004481E-03
   59374    (59374)               2.13058654E-03
   59375    (59375)               2.13015315E-03
   59376    (59376)               2.13076699E-03
   59377    (59377)               2.13115942E-03
   59378    (59378)               2.13176292E-03
   59379    (59379)               2.13105686E-03
   59380    (59380)               2.13158970E-03
   59381    (59381)               2.13205594E-03
   59382    (59382)               2.13258009E-03
   59383    (59383)               2.13215306E-03
   59384    (59384)               2.13274649E-03
   59385    (59385)               2.13313419E-03
   59386    (59386)               2.13371776E-03
   59387    (59387)               2.13128144E-03
   59388    (59388)               2.13167555E-03
   59389    (59389)               2.13228191E-03
   59390    (59390)               2.13267019E-03
   59391    (59391)               2.13210060E-03
   59392    (59392)               2.13255627E-03
   59393    (59393)               2.13308879E-03
   59394    (59394)               2.13353739E-03
   59395    (59395)               2.13326906E-03
   59396    (59396)               2.13365167E-03
   59397    (59397)               2.13424304E-03
   59398    (59398)               2.13462013E-03
   59399    (59399)               2.13406399E-03
   59400    (59400)               2.13450569E-03
   59401    (59401)               2.13502632E-03
   59402    (59402)               2.13546131E-03
   59403    (59403)               2.13304214E-03
   59404    (59404)               2.13355782E-03
   59405    (59405)               2.13401558E-03
   59406    (59406)               2.13452302E-03
   59407    (59407)               2.13410289E-03
   59408    (59408)               2.13467687E-03
   59409    (59409)               2.13505926E-03
   59410    (59410)               2.13562389E-03
   59411    (59411)               2.13497641E-03
   59412    (59412)               2.13547579E-03
   59413    (59413)               2.13592474E-03
   59414    (59414)               2.13641627E-03
   59415    (59415)               2.13600343E-03
   59416    (59416)               2.13655892E-03
   59417    (59417)               2.13693552E-03
   59418    (59418)               2.13748208E-03
   59419    (59419)               2.13141147E-03
   59420    (59420)               2.13208603E-03
   59421    (59421)               2.13239650E-03
   59422    (59422)               2.13305964E-03
   59423    (59423)               2.13279009E-03
   59424    (59424)               2.13352305E-03
   59425    (59425)               2.13375174E-03
   59426    (59426)               2.13447224E-03
   59427    (59427)               2.13336944E-03
   59428    (59428)               2.13402139E-03
   59429    (59429)               2.13433034E-03
   59430    (59430)               2.13497139E-03
   59431    (59431)               2.13470182E-03
   59432    (59432)               2.13541015E-03
   59433    (59433)               2.13564040E-03
   59434    (59434)               2.13633683E-03
   59435    (59435)               2.13428429E-03
   59436    (59436)               2.13507320E-03
   59437    (59437)               2.13522055E-03
   59438    (59438)               2.13599605E-03
   59439    (59439)               2.13588914E-03
   59440    (59440)               2.13673147E-03
   59441    (59441)               2.13679814E-03
   59442    (59442)               2.13762621E-03
   59443    (59443)               2.13614580E-03
   59444    (59444)               2.13690820E-03
   59445    (59445)               2.13706011E-03
   59446    (59446)               2.13780970E-03
   59447    (59447)               2.13769676E-03
   59448    (59448)               2.13851087E-03
   59449    (59449)               2.13858499E-03
   59450    (59450)               2.13527931E-03
   59451    (59451)               2.13590972E-03
   59452    (59452)               2.13621644E-03
   59453    (59453)               2.13683643E-03
   59454    (59454)               2.13656758E-03
   59455    (59455)               2.13725236E-03
   59456    (59456)               2.13748340E-03
   59457    (59457)               2.13815682E-03
   59458    (59458)               2.13714181E-03
   59459    (59459)               2.13775164E-03
   59460    (59460)               2.13805554E-03
   59461    (59461)               2.13865545E-03
   59462    (59462)               2.13838796E-03
   59463    (59463)               2.13905026E-03
   59464    (59464)               2.13928136E-03
   59465    (59465)               2.13796356E-03
   59466    (59466)               2.13870058E-03
   59467    (59467)               2.13885617E-03
   59468    (59468)               0.0000000     
   59469    (59469)               0.0000000     
   59470    (59470)               0.0000000     
   59471    (59471)               2.15810199E-03
   59472    (59472)               2.15864536E-03
   59473    (59473)               2.15918502E-03
   59474    (59474)               2.15854892E-03
   59475    (59475)               2.15972092E-03
   59476    (59476)               2.15934441E-03
   59477    (59477)               2.16059827E-03
   59478    (59478)               2.15986787E-03
   59479    (59479)               2.16110171E-03
   59480    (59480)               2.16186288E-03
   59481    (59481)               2.16313749E-03
   59482    (59482)               2.16234615E-03
   59483    (59483)               2.16360050E-03
   59484    (59484)               2.16038797E-03
   59485    (59485)               2.16160212E-03
   59486    (59486)               2.16090466E-03
   59487    (59487)               2.16209945E-03
   59488    (59488)               2.16282676E-03
   59489    (59489)               2.16406119E-03
   59490    (59490)               2.16330462E-03
   59491    (59491)               2.16451948E-03
   59492    (59492)               2.15909979E-03
   59493    (59493)               2.16025304E-03
   59494    (59494)               2.15964649E-03
   59495    (59495)               2.16078133E-03
   59496    (59496)               2.16018901E-03
   59497    (59497)               2.16130576E-03
   59498    (59498)               2.16072733E-03
   59499    (59499)               2.16182632E-03
   59500    (59500)               2.16141789E-03
   59501    (59501)               2.16259367E-03
   59502    (59502)               2.16192763E-03
   59503    (59503)               2.16308473E-03
   59504    (59504)               2.16377971E-03
   59505    (59505)               2.16497534E-03
   59506    (59506)               2.16425198E-03
   59507    (59507)               2.16542871E-03
   59508    (59508)               2.16243384E-03
   59509    (59509)               2.16357258E-03
   59510    (59510)               2.16293648E-03
   59511    (59511)               2.16405720E-03
   59512    (59512)               2.16472137E-03
   59513    (59513)               2.16587955E-03
   59514    (59514)               2.16518785E-03
   59515    (59515)               2.16632779E-03
   59516    (59516)               2.16442140E-03
   59517    (59517)               2.16571389E-03
   59518    (59518)               2.16486405E-03
   59519    (59519)               2.16613609E-03
   59520    (59520)               2.16701420E-03
   59521    (59521)               2.16832164E-03
   59522    (59522)               2.16741589E-03
   59523    (59523)               2.16870276E-03
   59524    (59524)               2.16530472E-03
   59525    (59525)               2.16655667E-03
   59526    (59526)               2.16574336E-03
   59527    (59527)               2.16697556E-03
   59528    (59528)               2.16781631E-03
   59529    (59529)               2.16908297E-03
   59530    (59530)               2.16821541E-03
   59531    (59531)               2.16946221E-03
   59532    (59532)               2.16963544E-03
   59533    (59533)               2.16999595E-03
   59534    (59534)               2.17035592E-03
   59535    (59535)               2.17071526E-03
   59536    (59536)               2.16617990E-03
   59537    (59537)               2.16739271E-03
   59538    (59538)               2.16661428E-03
   59539    (59539)               2.16780804E-03
   59540    (59540)               2.16861309E-03
   59541    (59541)               2.16984038E-03
   59542    (59542)               2.16900930E-03
   59543    (59543)               2.17021742E-03
   59544    (59544)               2.16704647E-03
   59545    (59545)               2.16822150E-03
   59546    (59546)               2.16747640E-03
   59547    (59547)               2.16863303E-03
   59548    (59548)               2.16940397E-03
   59549    (59549)               2.17059325E-03
   59550    (59550)               2.16979706E-03
   59551    (59551)               2.17096783E-03
   59552    (59552)               2.17107388E-03
   59553    (59553)               2.17143172E-03
   59554    (59554)               2.17178869E-03
   59555    (59555)               2.17214474E-03
   59556    (59556)               0.0000000     
   59557    (59557)               0.0000000     
   59558    (59558)               0.0000000     
   59559    (59559)               0.0000000     
   59560    (59560)               0.0000000     
   59561    (59561)               0.0000000     
   59562    (59562)               0.0000000     
   59563    (59563)               0.0000000     
   59564    (59564)               0.0000000     
   59565    (59565)               0.0000000     
   59566    (59566)               0.0000000     
   59567    (59567)               0.0000000     
   59568    (59568)               0.0000000     
   59569    (59569)               2.13701539E-03
   59570    (59570)               2.13711368E-03
   59571    (59571)               2.13801207E-03
   59572    (59572)               2.13811015E-03
   59573    (59573)               2.13358529E-03
   59574    (59574)               2.13378140E-03
   59575    (59575)               2.13455215E-03
   59576    (59576)               2.13474669E-03
   59577    (59577)               2.13899509E-03
   59578    (59578)               2.13909300E-03
   59579    (59579)               2.13996465E-03
   59580    (59580)               2.14006237E-03
   59581    (59581)               2.13550584E-03
   59582    (59582)               2.13569887E-03
   59583    (59583)               2.13644656E-03
   59584    (59584)               2.13663811E-03
   59585    (59585)               2.13400715E-03
   59586    (59586)               2.13426245E-03
   59587    (59587)               2.13497025E-03
   59588    (59588)               2.13522274E-03
   59589    (59589)               2.13454715E-03
   59590    (59590)               2.13486108E-03
   59591    (59591)               2.13550400E-03
   59592    (59592)               2.13581387E-03
   59593    (59593)               2.13592029E-03
   59594    (59594)               2.13617003E-03
   59595    (59595)               2.13685745E-03
   59596    (59596)               2.13710451E-03
   59597    (59597)               2.13644793E-03
   59598    (59598)               2.13675386E-03
   59599    (59599)               2.13737914E-03
   59600    (59600)               2.13768122E-03
   59601    (59601)               2.14092095E-03
   59602    (59602)               2.14101851E-03
   59603    (59603)               2.14186417E-03
   59604    (59604)               2.14196158E-03
   59605    (59605)               2.13737449E-03
   59606    (59606)               2.13756460E-03
   59607    (59607)               2.13828982E-03
   59608    (59608)               2.13847852E-03
   59609    (59609)               2.14289179E-03
   59610    (59610)               2.13919275E-03
   59611    (59611)               2.13938005E-03
   59612    (59612)               2.14008343E-03
   59613    (59613)               2.14026938E-03
   59614    (59614)               2.13778191E-03
   59615    (59615)               2.13802635E-03
   59616    (59616)               2.13869385E-03
   59617    (59617)               2.13893573E-03
   59618    (59618)               2.13829780E-03
   59619    (59619)               2.13859611E-03
   59620    (59620)               2.13920407E-03
   59621    (59621)               2.13949871E-03
   59622    (59622)               2.13959344E-03
   59623    (59623)               2.13983284E-03
   59624    (59624)               2.14048087E-03
   59625    (59625)               2.14071782E-03
   59626    (59626)               2.14009813E-03
   59627    (59627)               2.14038918E-03
   59628    (59628)               2.14098014E-03
   59629    (59629)               2.14126770E-03
   59630    (59630)               2.13520402E-03
   59631    (59631)               2.13557573E-03
   59632    (59632)               2.13615215E-03
   59633    (59633)               2.13651862E-03
   59634    (59634)               2.13597595E-03
   59635    (59635)               2.13640438E-03
   59636    (59636)               2.13691303E-03
   59637    (59637)               2.13733506E-03
   59638    (59638)               2.13708761E-03
   59639    (59639)               2.13744897E-03
   59640    (59640)               2.13801054E-03
   59641    (59641)               2.13836691E-03
   59642    (59642)               2.13783768E-03
   59643    (59643)               2.13825350E-03
   59644    (59644)               2.13875009E-03
   59645    (59645)               2.13915983E-03
   59646    (59646)               2.13686070E-03
   59647    (59647)               2.13734459E-03
   59648    (59648)               2.13778446E-03
   59649    (59649)               2.13826086E-03
   59650    (59650)               2.13785564E-03
   59651    (59651)               2.13839350E-03
   59652    (59652)               2.13876391E-03
   59653    (59653)               2.13929327E-03
   59654    (59654)               2.13869612E-03
   59655    (59655)               2.13916523E-03
   59656    (59656)               2.13959585E-03
   59657    (59657)               2.14005783E-03
   59658    (59658)               2.13966047E-03
   59659    (59659)               2.14018151E-03
   59660    (59660)               2.14054545E-03
   59661    (59661)               2.13892112E-03
   59662    (59662)               2.13927263E-03
   59663    (59663)               2.13981950E-03
   59664    (59664)               2.14016626E-03
   59665    (59665)               2.13965041E-03
   59666    (59666)               2.14005421E-03
   59667    (59667)               2.14053876E-03
   59668    (59668)               2.14093678E-03
   59669    (59669)               2.14070587E-03
   59670    (59670)               2.14104799E-03
   59671    (59671)               2.14158038E-03
   59672    (59672)               2.14191797E-03
   59673    (59673)               2.14141533E-03
   59674    (59674)               2.14180770E-03
   59675    (59675)               2.14228027E-03
   59676    (59676)               2.14048377E-03
   59677    (59677)               2.14093880E-03
   59678    (59678)               2.14136004E-03
   59679    (59679)               0.0000000     
   59680    (59680)               0.0000000     
   59681    (59681)               0.0000000     
   59682    (59682)               0.0000000     
   59683    (59683)               0.0000000     
   59684    (59684)               0.0000000     
   59685    (59685)               0.0000000     
   59686    (59686)               0.0000000     
   59687    (59687)               0.0000000     
   59688    (59688)               0.0000000     
   59689    (59689)               0.0000000     
   59690    (59690)               0.0000000     
   59691    (59691)               0.0000000     
   59692    (59692)               0.0000000     
   59693    (59693)               0.0000000     
   59694    (59694)               0.0000000     
   59695    (59695)               0.0000000     
   59696    (59696)               0.0000000     
   59697    (59697)               0.0000000     
   59698    (59698)               0.0000000     
   59699    (59699)               0.0000000     
   59700    (59700)               0.0000000     
   59701    (59701)               0.0000000     
   59702    (59702)               0.0000000     
   59703    (59703)               0.0000000     
   59704    (59704)               0.0000000     
   59705    (59705)               0.0000000     
   59706    (59706)               0.0000000     
   59707    (59707)               0.0000000     
   59708    (59708)               0.0000000     
   59709    (59709)               0.0000000     
   59710    (59710)               0.0000000     
   59711    (59711)               0.0000000     
   59712    (59712)               0.0000000     
   59713    (59713)               0.0000000     
   59714    (59714)               0.0000000     
   59715    (59715)               0.0000000     
   59716    (59716)               0.0000000     
   59717    (59717)               0.0000000     
   59718    (59718)               0.0000000     
   59719    (59719)               0.0000000     
   59720    (59720)               0.0000000     
   59721    (59721)               0.0000000     
   59722    (59722)               0.0000000     
   59723    (59723)               0.0000000     
 -----------------------------------------------




 HEAD WILL BE SAVED ON UNIT 1018 AT END OF TIME STEP    1, STRESS PERIOD    1


  VOLUME BUDGET FOR ENTIRE MODEL AT END OF TIME STEP    1, STRESS PERIOD   1
  ---------------------------------------------------------------------------------------------------

     CUMULATIVE VOLUME      L**3       RATES FOR THIS TIME STEP      L**3/T          PACKAGE NAME    
     ------------------                 ------------------------                     ----------------

           IN:                                      IN:
           ---                                      ---
                 WEL =           0.0000                   WEL =           0.0000     WELL_CASEB                       
                 RCH =         607.0805                   RCH =         607.0805     RCH                              
                 EVT =           0.0000                   EVT =           0.0000     EVT                              
                 CHD =           0.0000                   CHD =           0.0000     CHD                              

            TOTAL IN =         607.0805              TOTAL IN =         607.0805

          OUT:                                     OUT:
          ----                                     ----
                 WEL =          75.6299                   WEL =          75.6299     WELL_CASEB                       
                 RCH =           0.0000                   RCH =           0.0000     RCH                              
                 EVT =           5.7208                   EVT =           5.7208     EVT                              
                 CHD =         525.8037                   CHD =         525.8037     CHD                              

           TOTAL OUT =         607.1544             TOTAL OUT =         607.1544

            IN - OUT =      -7.3920E-02              IN - OUT =      -7.3920E-02

 PERCENT DISCREPANCY =          -0.01     PERCENT DISCREPANCY =          -0.01




         TIME SUMMARY AT END OF TIME STEP    1 IN STRESS PERIOD    1
                    SECONDS     MINUTES      HOURS       DAYS        YEARS
                    -----------------------------------------------------------
   TIME STEP LENGTH  1.0000     1.66667E-02 2.77778E-04 1.15741E-05 3.16881E-08
 STRESS PERIOD TIME  1.0000     1.66667E-02 2.77778E-04 1.15741E-05 3.16881E-08
         TOTAL TIME  1.0000     1.66667E-02 2.77778E-04 1.15741E-05 3.16881E-08


end timestep

