                                   MODFLOW 6
                U.S. GEOLOGICAL SURVEY MODULAR HYDROLOGIC MODEL
                          GROUNDWATER FLOW MODEL (GWF)
                            VERSION 6.6.0 12/20/2024

   MODFLOW 6 compiled Dec 31 2024 17:10:16 with Intel(R) Fortran Intel(R) 64
   Compiler Classic for applications running on Intel(R) 64, Version 2021.7.0
                             Build 20220726_000000

This software has been approved for release by the U.S. Geological 
Survey (USGS). Although the software has been subjected to rigorous 
review, the USGS reserves the right to update the software as needed 
pursuant to further analysis and review. No warranty, expressed or 
implied, is made by the USGS or the U.S. Government as to the 
functionality of the software and related material nor shall the 
fact of release constitute any such warranty. Furthermore, the 
software is released on condition that neither the USGS nor the U.S. 
Government shall be held liable for any damages resulting from its 
authorized or unauthorized use. Also refer to the USGS Water 
Resources Software User Rights Notice for complete use, copyright, 
and distribution information.


As a work of the United States Government, this USGS product is 
in the public domain within the United States. You can copy, 
modify, distribute, and perform the work, even for commercial 
purposes, all without asking permission. Additionally, USGS 
waives copyright and related rights in the work worldwide 
through CC0 1.0 Universal Public Domain Dedication 
(https://creativecommons.org/publicdomain/zero/1.0/).

The following GNU Lesser General Public License (LGPL) libraries
are used in this USGS product:

    SPARSKIT version 2.0
      ilut, luson, and qsplit 
      (https://www-users.cse.umn.edu/~saad/software/SPARSKIT/)

    RCM - Reverse Cuthill McKee Ordering
      (https://people.math.sc.edu/Burkardt/f_src/rcm/rcm.html)

    BLAS - Basic Linear Algebra Subprograms Level 1
      (https://people.math.sc.edu/Burkardt/f_src/blas1_d/blas1_d.html)

    SPARSEKIT - Sparse Matrix Utility Package
      amux, dperm, dvperm, rperm, and cperm
      (https://people.sc.fsu.edu/~jburkardt/f77_src/sparsekit/sparsekit.html)

The following BSD-3 License libraries are used in this USGS product:

    Modern Fortran DAG Library
      Copyright (c) 2018, Jacob Williams
      All rights reserved.
      (https://github.com/jacobwilliams/daglib)

MODFLOW 6 compiler options: /O2 /heap-arrays:0 /fpe:0 /traceback /nologo /fpp
/c /module:win64\mod_mf6\ /object:win64\obj_mf6\

System command used to initiate simulation:
mf6

MODFLOW was compiled using uniform precision.

Real Variables
  KIND: 8
  TINY (smallest non-zero value):    2.225074-308
  HUGE (largest value):    1.797693+308
  PRECISION: 15
  SIZE IN BITS: 64

Integer Variables
  KIND: 4
  HUGE (largest value): 2147483647
  SIZE IN BITS: 32

Long Integer Variables
  KIND: 8
  HUGE (largest value): 9223372036854775807
  SIZE IN BITS: 64

Logical Variables
  KIND: 4
  SIZE IN BITS: 32
 
 NAMEFILE OPTIONS:
    FLOWS WILL BE SAVED TO BUDGET FILE SPECIFIED IN OUTPUT CONTROL
 END NAMEFILE OPTIONS:

 DISV -- VERTEX GRID DISCRETIZATION PACKAGE, VERSION 1 : 12/23/2015 - INPUT READ FROM MEMPATH: __INPUT__/TRIANGLE_CASEA/DISV                     


 Setting Discretization Options
 End Setting Discretization Options

 Setting Discretization Dimensions
    NLAY = 2
    NCPL = 4768
    NVERT = 3044
 End Setting Discretization Dimensions

 Setting Discretization Griddata
    TOP set from input file
    BOTM set from input file
 End Setting Discretization Griddata

 Discretization Vertex data loaded
 Discretization Cell2d data loaded

 NPF -- NODE PROPERTY FLOW PACKAGE, VERSION 1, 3/30/2015 INPUT READ FROM MEMPATH: __INPUT__/TRIANGLE_CASEA/NPF                      


 IC -- Initial Conditions Package, Version 8, 3/28/2015 input read from mempath: __INPUT__/TRIANGLE_CASEA/IC                       


 Setting NPF Options
    Cell-by-cell flow information will be saved to binary file whenever ICBCFL is not zero.
    Specific discharge will be calculated at cell centers and written to DATA-SPDIS in budget file when requested.
 End Setting NPF Options

 Setting NPF Griddata
    ICELLTYPE set from input file
    K set from input file
    K33 not provided.  Setting K33 = K.
    K22 not provided.  Setting K22 = K.
 End Setting NPF Griddata


 WEL   -- WEL PACKAGE, VERSION 8, 2/22/2014 INPUT READ FROM MEMPATH: __INPUT__/TRIANGLE_CASEA/WELL_PACKAGE             

 PROCESSING WEL BASE OPTIONS
    FLOWS WILL BE SAVED TO BUDGET FILE SPECIFIED IN OUTPUT CONTROL
 END OF WEL BASE OPTIONS

 PROCESSING WEL OPTIONS
 END OF WEL OPTIONS

 PROCESSING WEL BASE DIMENSIONS
    MAXBOUND =    6818
 END OF WEL BASE DIMENSIONS

 RCH   -- RCH PACKAGE, VERSION 8, 2/22/2014 INPUT READ FROM MEMPATH: __INPUT__/TRIANGLE_CASEA/RCH                      

 PROCESSING RCH BASE OPTIONS
    FLOWS WILL BE SAVED TO BUDGET FILE SPECIFIED IN OUTPUT CONTROL
    RCH FLOWS WILL BE PRINTED TO LISTING FILE.
 END OF RCH BASE OPTIONS

 PROCESSING RCH OPTIONS
    RECHARGE WILL BE APPLIED TO SPECIFIED CELL.
 END OF RCH OPTIONS

 PROCESSING RCH BASE DIMENSIONS
    MAXBOUND =    4768
 END OF RCH BASE DIMENSIONS

 EVT   -- EVT PACKAGE, VERSION 8, 2/22/2014 INPUT READ FROM MEMPATH: __INPUT__/TRIANGLE_CASEA/EVT                      

 PROCESSING EVT BASE OPTIONS
    FLOWS WILL BE SAVED TO BUDGET FILE SPECIFIED IN OUTPUT CONTROL
 END OF EVT BASE OPTIONS

 PROCESSING EVT OPTIONS
 END OF EVT OPTIONS

 PROCESSING EVT BASE DIMENSIONS
    MAXBOUND =    3735
 END OF EVT BASE DIMENSIONS

 PROCESSING EVT DIMENSIONS
    NSEG = 1
 END OF EVT DIMENSIONS

 CHD   -- CHD PACKAGE, VERSION 8, 2/22/2014 INPUT READ FROM MEMPATH: __INPUT__/TRIANGLE_CASEA/CHD                      

 PROCESSING CHD BASE OPTIONS
    FLOWS WILL BE SAVED TO BUDGET FILE SPECIFIED IN OUTPUT CONTROL
 END OF CHD BASE OPTIONS

 PROCESSING CHD BASE DIMENSIONS
    MAXBOUND =     848
 END OF CHD BASE DIMENSIONS
    STRT set from input file
    BINARY GRID INFORMATION WILL BE WRITTEN TO:
      UNIT NUMBER: 1016
      FILE NAME: triangle_caseA.disv.grb

 OPENED triangle_caseA.disv.grb
 FILE TYPE:DATA(BINARY)   UNIT 1016   STATUS:REPLACE             
 FORMAT:UNFORMATTED            ACCESS:STREAM              
 ACTION:READWRITE           

      THE LAST TIME STEP WILL BE PRINTED
      THE LAST TIME STEP WILL BE PRINTED
 # File generated by Flopy version 3.9.1 on 02/12/2026 at 09:38:23.

 PROCESSING OC OPTIONS

    BUDGET INFORMATION WILL BE WRITTEN TO:
      UNIT NUMBER: 1017
      FILE NAME: triangle_caseA.cbc

 OPENED triangle_caseA.cbc
 FILE TYPE:DATA(BINARY)   UNIT 1017   STATUS:REPLACE             
 FORMAT:UNFORMATTED            ACCESS:STREAM              
 ACTION:READWRITE           

    HEAD INFORMATION WILL BE WRITTEN TO:
      UNIT NUMBER: 1018
      FILE NAME: triangle_caseA.hds

 OPENED triangle_caseA.hds
 FILE TYPE:DATA(BINARY)   UNIT 1018   STATUS:REPLACE             
 FORMAT:UNFORMATTED            ACCESS:STREAM              
 ACTION:READWRITE           

 END OF OC OPTIONS

start timestep kper="1" kstp="1" mode="normal"


 BEGIN READING OUTPUT CONTROL FOR STRESS PERIOD 1
      THE LAST TIME STEP WILL BE SAVED
      THE LAST TIME STEP WILL BE SAVED
      THE LAST TIME STEP WILL BE PRINTED

 END READING OUTPUT CONTROL FOR STRESS PERIOD 1
 UBDSV1 SAVING     FLOW-JA-FACE ON UNIT   1017 AT TIME STEP      1, STRESS PERIOD      1
 UBDSV06 SAVING       DATA-SPDIS IN MODEL TRIANGLE_CASEA   PACKAGE NPF             CONNECTED TO MODEL TRIANGLE_CASEA   PACKAGE NPF              ON UNIT   1017 AT TIME STEP      1, STRESS PERIOD      1
 UBDSV06 SAVING              WEL IN MODEL TRIANGLE_CASEA   PACKAGE TRIANGLE_CASEA  CONNECTED TO MODEL TRIANGLE_CASEA   PACKAGE WELL_PACKAGE     ON UNIT   1017 AT TIME STEP      1, STRESS PERIOD      1
 UBDSV06 SAVING              RCH IN MODEL TRIANGLE_CASEA   PACKAGE TRIANGLE_CASEA  CONNECTED TO MODEL TRIANGLE_CASEA   PACKAGE RCH              ON UNIT   1017 AT TIME STEP      1, STRESS PERIOD      1
 UBDSV06 SAVING              EVT IN MODEL TRIANGLE_CASEA   PACKAGE TRIANGLE_CASEA  CONNECTED TO MODEL TRIANGLE_CASEA   PACKAGE EVT              ON UNIT   1017 AT TIME STEP      1, STRESS PERIOD      1
 UBDSV06 SAVING              CHD IN MODEL TRIANGLE_CASEA   PACKAGE TRIANGLE_CASEA  CONNECTED TO MODEL TRIANGLE_CASEA   PACKAGE CHD              ON UNIT   1017 AT TIME STEP      1, STRESS PERIOD      1

 RCH PACKAGE (RCH) FLOW RATES   PERIOD      1   STEP        1
 -----------------------------------------------
   NUMBER   CELLID                    RATE      
 -----------------------------------------------
     1      (1,1)                 7.39078558E-03
     2      (1,2)                 1.22622140E-05
     3      (1,3)                 1.14254962E-05
     4      (1,4)                 1.02404847E-05
     5      (1,5)                 1.09498662E-05
     6      (1,6)                 1.00359789E-05
     7      (1,7)                 7.85067302E-08
     8      (1,8)                 2.94484038E-02
     9      (1,9)                 1.40839991E-02
     10     (1,10)                8.61130339E-06
     11     (1,11)                9.06688765E-06
     12     (1,12)                8.96770737E-06
     13     (1,13)                3.01689516E-03
     14     (1,14)                2.70427663E-02
     15     (1,15)                3.27031307E-02
     16     (1,16)                9.43878720E-06
     17     (1,17)                4.50658233E-04
     18     (1,18)                1.12632293E-02
     19     (1,19)                2.25910793E-05
     20     (1,20)                7.40842026E-03
     21     (1,21)                6.73104084E-07
     22     (1,22)                1.28856874E-07
     23     (1,23)                1.43866122E-03
     24     (1,24)                1.16380880E-07
     25     (1,25)                7.20551109E-07
     26     (1,26)                1.49571890E-04
     27     (1,27)                1.94480853E-02
     28     (1,28)                9.91728493E-06
     29     (1,29)                8.96478721E-03
     30     (1,30)                0.21310826    
     31     (1,31)                1.83500922E-02
     32     (1,32)                3.93404748E-03
     33     (1,33)                3.83511729E-03
     34     (1,34)                4.37680784E-05
     35     (1,35)                1.54173215E-02
     36     (1,36)                1.18047523E-02
     37     (1,37)                2.21678057E-03
     38     (1,38)                2.50069423E-05
     39     (1,39)                1.94146797E-07
     40     (1,40)                1.08915601E-05
     41     (1,41)                4.74809460E-03
     42     (1,42)                1.20969419E-02
     43     (1,43)                2.34308553E-07
     44     (1,44)                8.94038309E-04
     45     (1,45)                3.37956373E-06
     46     (1,46)                3.57712061E-03
     47     (1,47)                4.56259191E-07
     48     (1,48)                2.41020960E-02
     49     (1,49)                6.23893013E-06
     50     (1,50)                1.02790628E-05
     51     (1,51)                1.71940413E-02
     52     (1,52)                1.05914676E-05
     53     (1,53)                3.06015048E-04
     54     (1,54)                9.54616901E-08
     55     (1,55)                6.50567316E-04
     56     (1,56)                1.74199811E-04
     57     (1,57)                7.37506527E-04
     58     (1,58)                2.36394356E-04
     59     (1,59)                2.81292980E-04
     60     (1,60)                2.02854877E-07
     61     (1,61)                1.92540776E-02
     62     (1,62)                2.24844179E-02
     63     (1,63)                1.54486693E-06
     64     (1,64)                7.41450113E-04
     65     (1,65)                2.89495861E-02
     66     (1,66)                7.37750679E-05
     67     (1,67)                1.53188261E-02
     68     (1,68)                6.99852440E-06
     69     (1,69)                3.38448793E-05
     70     (1,70)                4.17599827E-02
     71     (1,71)                2.57237531E-05
     72     (1,72)                4.28615754E-02
     73     (1,73)                1.22031405E-06
     74     (1,74)                2.30888448E-03
     75     (1,75)                4.00678352E-06
     76     (1,76)                2.63930072E-02
     77     (1,77)                2.07975073E-05
     78     (1,78)                6.84305035E-03
     79     (1,79)                5.46097650E-04
     80     (1,80)                9.64120953E-04
     81     (1,81)                2.93326911E-05
     82     (1,82)                6.89433676E-04
     83     (1,83)                2.41900899E-04
     84     (1,84)                0.0000000     
     85     (1,85)                1.01175381E-03
     86     (1,86)                2.27849907E-04
     87     (1,87)                9.05059856E-02
     88     (1,88)                5.35337223E-05
     89     (1,89)                1.34410191E-04
     90     (1,90)                0.16070365    
     91     (1,91)                5.41725821E-02
     92     (1,92)                5.97491548E-03
     93     (1,93)                6.73043839E-07
     94     (1,94)                0.0000000     
     95     (1,95)                3.48916504E-04
     96     (1,96)                1.44696699E-04
     97     (1,97)                2.46075634E-05
     98     (1,98)                8.28161406E-07
     99     (1,99)                2.29192707E-04
    100     (1,100)               1.14512799E-02
    101     (1,101)               8.12271645E-02
    102     (1,102)               2.82361728E-05
    103     (1,103)               1.33293021E-06
    104     (1,104)               3.71172128E-04
    105     (1,105)               1.17910505E-04
    106     (1,106)               2.23920243E-02
    107     (1,107)               0.0000000     
    108     (1,108)               0.0000000     
    109     (1,109)               3.29469096E-04
    110     (1,110)               0.0000000     
    111     (1,111)               8.98256092E-02
    112     (1,112)               6.47784335E-04
    113     (1,113)               7.48587266E-02
    114     (1,114)               4.56446062E-04
    115     (1,115)               1.16327849E-03
    116     (1,116)               0.0000000     
    117     (1,117)               0.0000000     
    118     (1,118)               0.12173673    
    119     (1,119)               0.0000000     
    120     (1,120)               9.98061064E-02
    121     (1,121)               0.0000000     
    122     (1,122)               4.15281065E-04
    123     (1,123)               0.0000000     
    124     (1,124)               7.27532011E-04
    125     (1,125)               0.0000000     
    126     (1,126)               0.0000000     
    127     (1,127)               5.15560601E-06
    128     (1,128)               0.16086640    
    129     (1,129)               0.0000000     
    130     (1,130)               3.62375082E-05
    131     (1,131)               0.0000000     
    132     (1,132)               5.90661615E-04
    133     (1,133)               0.0000000     
    134     (1,134)               1.13716465E-04
    135     (1,135)               6.01982777E-05
    136     (1,136)               0.0000000     
    137     (1,137)               4.56129375E-04
    138     (1,138)               0.0000000     
    139     (1,139)               0.0000000     
    140     (1,140)               6.65096399E-04
    141     (1,141)               0.0000000     
    142     (1,142)               5.43128707E-05
    143     (1,143)               0.0000000     
    144     (1,144)               1.75200215E-04
    145     (1,145)               1.89819979E-07
    146     (1,146)               7.73237051E-05
    147     (1,147)               8.89585727E-05
    148     (1,148)               9.29601214E-05
    149     (1,149)               0.0000000     
    150     (1,150)               0.0000000     
    151     (1,151)               1.30745368E-04
    152     (1,152)               1.22194178E-04
    153     (1,153)               3.69711869E-04
    154     (1,154)               3.40563318E-04
    155     (1,155)               6.77249123E-03
    156     (1,156)               4.98393494E-04
    157     (1,157)               1.75979998E-02
    158     (1,158)               3.30853662E-05
    159     (1,159)               2.22382729E-02
    160     (1,160)               1.15420161E-03
    161     (1,161)               2.88451278E-03
    162     (1,162)               0.0000000     
    163     (1,163)               5.56198897E-06
    164     (1,164)               2.73661338E-02
    165     (1,165)               1.62514129E-03
    166     (1,166)               2.42764733E-02
    167     (1,167)               8.49218156E-03
    168     (1,168)               1.13750663E-04
    169     (1,169)               1.07118630E-04
    170     (1,170)               3.81672366E-04
    171     (1,171)               1.14366302E-02
    172     (1,172)               2.61718158E-02
    173     (1,173)               0.0000000     
    174     (1,174)               7.90907398E-03
    175     (1,175)               1.52785039E-04
    176     (1,176)               1.78478395E-02
    177     (1,177)               4.58837320E-03
    178     (1,178)               4.90036321E-03
    179     (1,179)               0.0000000     
    180     (1,180)               1.19843507E-05
    181     (1,181)               5.90041099E-05
    182     (1,182)               1.87346068E-02
    183     (1,183)               6.05728907E-05
    184     (1,184)               1.61676777E-04
    185     (1,185)               2.94014110E-02
    186     (1,186)               3.06695115E-04
    187     (1,187)               5.01516288E-03
    188     (1,188)               7.58857610E-03
    189     (1,189)               3.90175339E-02
    190     (1,190)               2.17278138E-02
    191     (1,191)               5.79022555E-03
    192     (1,192)               0.0000000     
    193     (1,193)               4.83168508E-04
    194     (1,194)               2.72095505E-02
    195     (1,195)               2.54272000E-05
    196     (1,196)               1.32619823E-04
    197     (1,197)               9.31233594E-03
    198     (1,198)               5.69082462E-05
    199     (1,199)               1.10787321E-02
    200     (1,200)               1.16946701E-02
    201     (1,201)               3.49697568E-03
    202     (1,202)               4.33592647E-02
    203     (1,203)               1.07158911E-03
    204     (1,204)               1.78511200E-05
    205     (1,205)               6.48125896E-03
    206     (1,206)               3.75585962E-03
    207     (1,207)               6.24301206E-08
    208     (1,208)               1.06419816E-06
    209     (1,209)               1.16617611E-06
    210     (1,210)               9.32088975E-06
    211     (1,211)               2.75300613E-05
    212     (1,212)               1.94408754E-03
    213     (1,213)               0.0000000     
    214     (1,214)               2.11515063E-07
    215     (1,215)               8.21043468E-03
    216     (1,216)               2.64763202E-07
    217     (1,217)               1.06271667E-02
    218     (1,218)               1.02413813E-02
    219     (1,219)               1.25052005E-05
    220     (1,220)               0.17552245    
    221     (1,221)               2.47387634E-07
    222     (1,222)               0.12305157    
    223     (1,223)               3.35335126E-02
    224     (1,224)               6.78728571E-08
    225     (1,225)               2.24509923E-07
    226     (1,226)               3.02072406E-04
    227     (1,227)               1.18069383E-02
    228     (1,228)               3.85305384E-02
    229     (1,229)               5.88972986E-05
    230     (1,230)               1.30197273E-07
    231     (1,231)               5.48600564E-06
    232     (1,232)               1.06374149E-05
    233     (1,233)               0.0000000     
    234     (1,234)               3.71603583E-02
    235     (1,235)               5.89744728E-05
    236     (1,236)               8.60544221E-03
    237     (1,237)               1.04150868E-07
    238     (1,238)               5.72150325E-03
    239     (1,239)               1.10650774E-07
    240     (1,240)               1.78598830E-07
    241     (1,241)               2.51644574E-03
    242     (1,242)               2.38025075E-03
    243     (1,243)               1.29171331E-02
    244     (1,244)               1.00300073E-05
    245     (1,245)               5.89627364E-02
    246     (1,246)               8.72152330E-06
    247     (1,247)               1.34710647E-03
    248     (1,248)               1.18666647E-02
    249     (1,249)               1.84544886E-02
    250     (1,250)               8.43642666E-06
    251     (1,251)               4.12231607E-02
    252     (1,252)               8.34999203E-03
    253     (1,253)               1.03103925E-05
    254     (1,254)               4.86016151E-03
    255     (1,255)               1.10954233E-03
    256     (1,256)               1.16663197E-05
    257     (1,257)               2.07595104E-02
    258     (1,258)               0.0000000     
    259     (1,259)               3.27099943E-03
    260     (1,260)               1.10120011E-02
    261     (1,261)               3.87453526E-03
    262     (1,262)               1.53573277E-04
    263     (1,263)               3.73298961E-06
    264     (1,264)               1.65918493E-07
    265     (1,265)               2.03098063E-05
    266     (1,266)               9.88464751E-06
    267     (1,267)               9.77166905E-04
    268     (1,268)               6.12038754E-03
    269     (1,269)               4.87025220E-02
    270     (1,270)               1.01872116E-03
    271     (1,271)               1.66340215E-07
    272     (1,272)               0.0000000     
    273     (1,273)               3.70512442E-02
    274     (1,274)               5.36948575E-05
    275     (1,275)               1.18146234E-02
    276     (1,276)               6.36027613E-07
    277     (1,277)               4.27044766E-02
    278     (1,278)               8.56820915E-08
    279     (1,279)               3.65071116E-03
    280     (1,280)               3.79799977E-03
    281     (1,281)               6.78843670E-06
    282     (1,282)               1.29435325E-02
    283     (1,283)               7.42078893E-08
    284     (1,284)               1.28308546E-02
    285     (1,285)               1.22038313E-06
    286     (1,286)               1.12485425E-03
    287     (1,287)               6.00895141E-08
    288     (1,288)               9.76504265E-03
    289     (1,289)               5.55046868E-07
    290     (1,290)               2.82150904E-07
    291     (1,291)               2.81514329E-04
    292     (1,292)               2.49480854E-02
    293     (1,293)               1.64369701E-03
    294     (1,294)               8.13393967E-08
    295     (1,295)               4.82660702E-03
    296     (1,296)               1.77572995E-02
    297     (1,297)               5.81507938E-04
    298     (1,298)               2.43484300E-03
    299     (1,299)               1.25887446E-05
    300     (1,300)               1.35148061E-02
    301     (1,301)               3.68886404E-06
    302     (1,302)               1.30198898E-07
    303     (1,303)               7.79166785E-06
    304     (1,304)               2.00720446E-05
    305     (1,305)               6.50364999E-04
    306     (1,306)               1.52992634E-04
    307     (1,307)               7.44382640E-03
    308     (1,308)               1.21430811E-05
    309     (1,309)               1.55501920E-05
    310     (1,310)               3.45341274E-02
    311     (1,311)               1.39625739E-03
    312     (1,312)               6.46721174E-02
    313     (1,313)               2.33733370E-02
    314     (1,314)               1.32959035E-03
    315     (1,315)               2.86247608E-04
    316     (1,316)               1.19344041E-04
    317     (1,317)               0.0000000     
    318     (1,318)               6.27474934E-03
    319     (1,319)               0.0000000     
    320     (1,320)               5.33058551E-05
    321     (1,321)               2.18009347E-04
    322     (1,322)               2.24505382E-07
    323     (1,323)               1.74969423E-05
    324     (1,324)               9.76195901E-08
    325     (1,325)               2.15893028E-07
    326     (1,326)               2.83230835E-07
    327     (1,327)               8.35343934E-05
    328     (1,328)               8.11910197E-07
    329     (1,329)               4.05370141E-06
    330     (1,330)               5.77375526E-05
    331     (1,331)               7.18388191E-05
    332     (1,332)               8.11366706E-05
    333     (1,333)               4.60388318E-05
    334     (1,334)               4.41781744E-06
    335     (1,335)               8.90789167E-06
    336     (1,336)               9.67614990E-04
    337     (1,337)               1.74873083E-07
    338     (1,338)               2.13720594E-03
    339     (1,339)               7.11059467E-08
    340     (1,340)               3.48864215E-05
    341     (1,341)               8.99649816E-06
    342     (1,342)               1.52907046E-07
    343     (1,343)               0.0000000     
    344     (1,344)               1.85495450E-06
    345     (1,345)               5.98351372E-07
    346     (1,346)               1.51300098E-06
    347     (1,347)               2.77787399E-07
    348     (1,348)               8.98863851E-04
    349     (1,349)               5.75600241E-05
    350     (1,350)               8.84568411E-06
    351     (1,351)               1.01722443E-04
    352     (1,352)               3.11827145E-05
    353     (1,353)               9.50662795E-05
    354     (1,354)               3.01766454E-07
    355     (1,355)               3.81314629E-04
    356     (1,356)               1.04959291E-05
    357     (1,357)               1.91325363E-07
    358     (1,358)               6.23362941E-04
    359     (1,359)               0.0000000     
    360     (1,360)               0.0000000     
    361     (1,361)               1.32390986E-06
    362     (1,362)               4.28302453E-04
    363     (1,363)               1.64703372E-03
    364     (1,364)               1.05177319E-05
    365     (1,365)               4.06393988E-07
    366     (1,366)               1.83782679E-03
    367     (1,367)               3.69215103E-05
    368     (1,368)               4.62860047E-04
    369     (1,369)               0.0000000     
    370     (1,370)               1.54985929E-05
    371     (1,371)               3.66177321E-04
    372     (1,372)               2.04405851E-06
    373     (1,373)               0.0000000     
    374     (1,374)               2.72924048E-05
    375     (1,375)               1.41505209E-05
    376     (1,376)               1.42107771E-03
    377     (1,377)               4.49227478E-04
    378     (1,378)               2.79623375E-07
    379     (1,379)               1.46607760E-07
    380     (1,380)               2.40074253E-04
    381     (1,381)               0.0000000     
    382     (1,382)               0.0000000     
    383     (1,383)               5.96672573E-05
    384     (1,384)               1.83182592E-03
    385     (1,385)               2.92462031E-07
    386     (1,386)               5.59754405E-07
    387     (1,387)               5.94045150E-07
    388     (1,388)               4.43248642E-06
    389     (1,389)               3.37117668E-06
    390     (1,390)               6.05876314E-04
    391     (1,391)               6.57100612E-04
    392     (1,392)               1.10184490E-04
    393     (1,393)               5.27820734E-04
    394     (1,394)               2.89522403E-05
    395     (1,395)               1.15260131E-03
    396     (1,396)               0.0000000     
    397     (1,397)               0.0000000     
    398     (1,398)               0.0000000     
    399     (1,399)               0.0000000     
    400     (1,400)               1.31182217E-03
    401     (1,401)               0.0000000     
    402     (1,402)               6.94350685E-06
    403     (1,403)               1.81962181E-04
    404     (1,404)               7.75500860E-06
    405     (1,405)               7.09563420E-06
    406     (1,406)               0.0000000     
    407     (1,407)               2.56036187E-07
    408     (1,408)               5.42255638E-04
    409     (1,409)               7.97349833E-05
    410     (1,410)               7.18927182E-06
    411     (1,411)               1.40574688E-04
    412     (1,412)               9.09051460E-07
    413     (1,413)               8.83782893E-04
    414     (1,414)               8.35249765E-08
    415     (1,415)               2.16289633E-04
    416     (1,416)               2.29481577E-05
    417     (1,417)               1.01695352E-05
    418     (1,418)               8.95133372E-07
    419     (1,419)               6.68202213E-05
    420     (1,420)               8.48784614E-06
    421     (1,421)               1.10837165E-03
    422     (1,422)               9.68014091E-06
    423     (1,423)               3.81320245E-07
    424     (1,424)               2.93598528E-04
    425     (1,425)               2.98173482E-05
    426     (1,426)               2.21175475E-05
    427     (1,427)               8.85022606E-06
    428     (1,428)               2.28021863E-05
    429     (1,429)               3.06452151E-06
    430     (1,430)               4.45343076E-05
    431     (1,431)               1.61834548E-04
    432     (1,432)               1.06387351E-06
    433     (1,433)               6.42873702E-03
    434     (1,434)               1.01295122E-06
    435     (1,435)               2.07425926E-07
    436     (1,436)               4.27504400E-03
    437     (1,437)               2.50542435E-05
    438     (1,438)               7.16921410E-07
    439     (1,439)               4.88683263E-05
    440     (1,440)               1.56306237E-04
    441     (1,441)               6.03017669E-05
    442     (1,442)               1.01332983E-04
    443     (1,443)               9.88239742E-05
    444     (1,444)               1.04624700E-04
    445     (1,445)               1.76826097E-04
    446     (1,446)               1.65820928E-04
    447     (1,447)               2.99886734E-05
    448     (1,448)               1.27821685E-05
    449     (1,449)               8.34614474E-05
    450     (1,450)               1.14049759E-05
    451     (1,451)               1.14108467E-05
    452     (1,452)               9.32590543E-05
    453     (1,453)               4.42626824E-04
    454     (1,454)               3.56942348E-05
    455     (1,455)               2.60420749E-05
    456     (1,456)               9.79865884E-06
    457     (1,457)               2.01984927E-05
    458     (1,458)               6.72038344E-06
    459     (1,459)               6.46752418E-04
    460     (1,460)               2.73421509E-07
    461     (1,461)               1.13076855E-04
    462     (1,462)               7.91471261E-06
    463     (1,463)               2.03236682E-05
    464     (1,464)               1.39889171E-04
    465     (1,465)               2.02631521E-04
    466     (1,466)               1.37691518E-07
    467     (1,467)               2.04201452E-04
    468     (1,468)               2.45521471E-04
    469     (1,469)               8.72074696E-07
    470     (1,470)               1.17701166E-04
    471     (1,471)               7.96631363E-05
    472     (1,472)               2.16686498E-06
    473     (1,473)               0.0000000     
    474     (1,474)               2.42341288E-04
    475     (1,475)               5.97542252E-02
    476     (1,476)               2.03536176E-07
    477     (1,477)               2.29197132E-04
    478     (1,478)               3.47409881E-05
    479     (1,479)               6.25659608E-07
    480     (1,480)               5.25780681E-05
    481     (1,481)               4.22208086E-06
    482     (1,482)               2.55676449E-05
    483     (1,483)               9.50919649E-07
    484     (1,484)               1.57317418E-04
    485     (1,485)               1.72027821E-03
    486     (1,486)               7.13696487E-06
    487     (1,487)               6.04202773E-05
    488     (1,488)               8.89555216E-07
    489     (1,489)               6.07032150E-07
    490     (1,490)               7.87770269E-05
    491     (1,491)               5.16349396E-03
    492     (1,492)               8.78701146E-06
    493     (1,493)               5.00170506E-04
    494     (1,494)               8.13490804E-07
    495     (1,495)               3.43866856E-05
    496     (1,496)               4.00393783E-06
    497     (1,497)               2.83356262E-05
    498     (1,498)               3.03283027E-05
    499     (1,499)               4.83067920E-07
    500     (1,500)               2.61776945E-05
    501     (1,501)               7.56050462E-06
    502     (1,502)               2.79672110E-07
    503     (1,503)               2.17691803E-05
    504     (1,504)               1.01235336E-05
    505     (1,505)               2.96456723E-05
    506     (1,506)               1.03983537E-05
    507     (1,507)               3.30306656E-05
    508     (1,508)               4.93934306E-05
    509     (1,509)               0.0000000     
    510     (1,510)               9.41967720E-06
    511     (1,511)               3.02063011E-05
    512     (1,512)               2.38498451E-05
    513     (1,513)               9.33167491E-05
    514     (1,514)               1.06191473E-06
    515     (1,515)               3.67525911E-07
    516     (1,516)               0.0000000     
    517     (1,517)               0.0000000     
    518     (1,518)               0.0000000     
    519     (1,519)               1.17282923E-06
    520     (1,520)               1.14962943E-07
    521     (1,521)               0.0000000     
    522     (1,522)               2.18198033E-05
    523     (1,523)               2.92903557E-07
    524     (1,524)               0.0000000     
    525     (1,525)               0.0000000     
    526     (1,526)               0.0000000     
    527     (1,527)               0.0000000     
    528     (1,528)               1.01310289E-06
    529     (1,529)               6.52341504E-05
    530     (1,530)               5.05947318E-07
    531     (1,531)               0.0000000     
    532     (1,532)               1.37453955E-04
    533     (1,533)               1.83246547E-07
    534     (1,534)               1.17166780E-07
    535     (1,535)               7.27734319E-07
    536     (1,536)               8.52604384E-06
    537     (1,537)               1.15438822E-05
    538     (1,538)               1.18069890E-06
    539     (1,539)               1.55881213E-05
    540     (1,540)               6.19105450E-04
    541     (1,541)               6.11858675E-07
    542     (1,542)               6.28173973E-05
    543     (1,543)               0.0000000     
    544     (1,544)               0.0000000     
    545     (1,545)               1.98938145E-05
    546     (1,546)               1.04552532E-05
    547     (1,547)               9.46635534E-05
    548     (1,548)               9.11178591E-08
    549     (1,549)               0.0000000     
    550     (1,550)               2.89265796E-05
    551     (1,551)               1.81009427E-04
    552     (1,552)               3.06159602E-07
    553     (1,553)               4.36718699E-05
    554     (1,554)               0.0000000     
    555     (1,555)               8.31752776E-07
    556     (1,556)               9.99124725E-04
    557     (1,557)               2.47017832E-06
    558     (1,558)               2.59435993E-06
    559     (1,559)               7.44208282E-08
    560     (1,560)               2.87623912E-07
    561     (1,561)               2.56237536E-05
    562     (1,562)               2.12309158E-06
    563     (1,563)               4.03172703E-04
    564     (1,564)               7.76555896E-08
    565     (1,565)               1.14704844E-05
    566     (1,566)               4.83267616E-04
    567     (1,567)               0.0000000     
    568     (1,568)               3.04002801E-07
    569     (1,569)               6.78622113E-05
    570     (1,570)               1.82536289E-04
    571     (1,571)               1.01197602E-05
    572     (1,572)               7.21050944E-06
    573     (1,573)               2.76605488E-07
    574     (1,574)               8.83687240E-06
    575     (1,575)               1.67965804E-04
    576     (1,576)               3.67886193E-04
    577     (1,577)               6.56938649E-08
    578     (1,578)               7.86780980E-06
    579     (1,579)               3.46354165E-04
    580     (1,580)               2.74441636E-07
    581     (1,581)               6.35424672E-08
    582     (1,582)               0.0000000     
    583     (1,583)               7.67596540E-06
    584     (1,584)               0.0000000     
    585     (1,585)               0.0000000     
    586     (1,586)               0.0000000     
    587     (1,587)               0.0000000     
    588     (1,588)               5.06191551E-07
    589     (1,589)               5.13072516E-04
    590     (1,590)               1.34832633E-06
    591     (1,591)               0.0000000     
    592     (1,592)               1.13562778E-05
    593     (1,593)               9.18414686E-06
    594     (1,594)               1.00408795E-05
    595     (1,595)               0.0000000     
    596     (1,596)               3.84312064E-03
    597     (1,597)               2.78835861E-07
    598     (1,598)               1.00050614E-05
    599     (1,599)               7.40554297E-04
    600     (1,600)               1.13031950E-05
    601     (1,601)               2.85483053E-07
    602     (1,602)               2.57720086E-04
    603     (1,603)               1.34298494E-05
    604     (1,604)               9.21089695E-06
    605     (1,605)               6.08727787E-04
    606     (1,606)               1.78825989E-04
    607     (1,607)               2.46468423E-04
    608     (1,608)               8.14457268E-06
    609     (1,609)               1.76064137E-03
    610     (1,610)               3.67485601E-05
    611     (1,611)               2.93409092E-05
    612     (1,612)               6.08891589E-05
    613     (1,613)               1.05574092E-05
    614     (1,614)               5.57602590E-05
    615     (1,615)               5.41391497E-06
    616     (1,616)               2.42238663E-06
    617     (1,617)               9.84138226E-05
    618     (1,618)               2.75072329E-05
    619     (1,619)               1.07127998E-05
    620     (1,620)               2.04043220E-04
    621     (1,621)               6.11035430E-05
    622     (1,622)               3.66442429E-04
    623     (1,623)               1.62790521E-05
    624     (1,624)               9.53584062E-06
    625     (1,625)               2.53783552E-05
    626     (1,626)               9.56175713E-06
    627     (1,627)               3.97013386E-03
    628     (1,628)               3.09485487E-06
    629     (1,629)               1.42883547E-04
    630     (1,630)               9.23167324E-06
    631     (1,631)               0.0000000     
    632     (1,632)               3.10658387E-07
    633     (1,633)               1.02415785E-03
    634     (1,634)               8.36893428E-07
    635     (1,635)               4.00542213E-04
    636     (1,636)               2.47797110E-06
    637     (1,637)               2.06642652E-03
    638     (1,638)               2.14997697E-07
    639     (1,639)               4.97160904E-03
    640     (1,640)               0.0000000     
    641     (1,641)               5.57032545E-07
    642     (1,642)               6.13765442E-08
    643     (1,643)               1.12840149E-07
    644     (1,644)               1.56313970E-04
    645     (1,645)               1.39332661E-04
    646     (1,646)               7.97817209E-04
    647     (1,647)               5.74991109E-05
    648     (1,648)               6.16987674E-07
    649     (1,649)               4.32525722E-03
    650     (1,650)               1.21533435E-07
    651     (1,651)               1.00895887E-07
    652     (1,652)               4.57465746E-07
    653     (1,653)               9.32715330E-04
    654     (1,654)               5.99879723E-03
    655     (1,655)               1.85489552E-07
    656     (1,656)               3.40188494E-03
    657     (1,657)               2.67814666E-05
    658     (1,658)               7.94563287E-03
    659     (1,659)               7.55483956E-06
    660     (1,660)               2.62849048E-03
    661     (1,661)               3.84034241E-03
    662     (1,662)               4.70440091E-05
    663     (1,663)               7.32577565E-06
    664     (1,664)               2.88530505E-02
    665     (1,665)               8.49455879E-06
    666     (1,666)               1.02708687E-02
    667     (1,667)               1.08321467E-05
    668     (1,668)               1.29735108E-02
    669     (1,669)               1.00048588E-02
    670     (1,670)               8.02372812E-06
    671     (1,671)               2.97408199E-07
    672     (1,672)               3.76399914E-03
    673     (1,673)               2.20489080E-07
    674     (1,674)               5.74141847E-03
    675     (1,675)               1.94411669E-07
    676     (1,676)               1.73541245E-02
    677     (1,677)               3.58287976E-05
    678     (1,678)               2.32590196E-02
    679     (1,679)               7.74544730E-03
    680     (1,680)               1.32713992E-05
    681     (1,681)               7.11581110E-03
    682     (1,682)               3.62241686E-06
    683     (1,683)               1.23725077E-05
    684     (1,684)               2.12900095E-05
    685     (1,685)               1.10718335E-05
    686     (1,686)               8.79216781E-03
    687     (1,687)               1.07317493E-03
    688     (1,688)               1.10653033E-07
    689     (1,689)               2.07138368E-07
    690     (1,690)               2.76215058E-05
    691     (1,691)               9.34701209E-08
    692     (1,692)               8.04710431E-06
    693     (1,693)               1.41185842E-07
    694     (1,694)               2.79111285E-06
    695     (1,695)               2.79275062E-06
    696     (1,696)               4.11192609E-03
    697     (1,697)               8.43951400E-04
    698     (1,698)               1.17871105E-05
    699     (1,699)               2.57698843E-03
    700     (1,700)               1.88131266E-05
    701     (1,701)               5.41318869E-04
    702     (1,702)               1.59566545E-02
    703     (1,703)               9.65880341E-06
    704     (1,704)               1.80401196E-03
    705     (1,705)               2.54666668E-03
    706     (1,706)               1.73978846E-03
    707     (1,707)               6.78452858E-06
    708     (1,708)               2.20711767E-03
    709     (1,709)               3.04214699E-05
    710     (1,710)               1.17091372E-02
    711     (1,711)               7.64802433E-06
    712     (1,712)               2.26445422E-03
    713     (1,713)               4.88874837E-04
    714     (1,714)               1.76801388E-02
    715     (1,715)               2.69532624E-02
    716     (1,716)               1.13103626E-02
    717     (1,717)               1.54743127E-05
    718     (1,718)               6.26047071E-03
    719     (1,719)               6.70344099E-05
    720     (1,720)               1.88107832E-04
    721     (1,721)               2.30427168E-06
    722     (1,722)               4.05922537E-05
    723     (1,723)               0.23003954    
    724     (1,724)               2.42202307E-06
    725     (1,725)               5.79445499E-07
    726     (1,726)               1.59212165E-03
    727     (1,727)               2.61834356E-04
    728     (1,728)               1.10577808E-04
    729     (1,729)               0.0000000     
    730     (1,730)               0.0000000     
    731     (1,731)               3.13787530E-05
    732     (1,732)               6.54738868E-05
    733     (1,733)               0.0000000     
    734     (1,734)               8.31275001E-06
    735     (1,735)               7.00921042E-04
    736     (1,736)               7.42430902E-06
    737     (1,737)               4.12980982E-05
    738     (1,738)               0.0000000     
    739     (1,739)               1.83094880E-04
    740     (1,740)               4.96846705E-07
    741     (1,741)               4.25520730E-05
    742     (1,742)               5.07101885E-07
    743     (1,743)               3.90079719E-06
    744     (1,744)               1.19200221E-05
    745     (1,745)               2.18766301E-04
    746     (1,746)               6.53972937E-05
    747     (1,747)               4.11086128E-05
    748     (1,748)               3.03695418E-06
    749     (1,749)               1.76296526E-04
    750     (1,750)               7.78678191E-05
    751     (1,751)               1.39538354E-04
    752     (1,752)               0.0000000     
    753     (1,753)               1.74818513E-03
    754     (1,754)               1.61820911E-07
    755     (1,755)               1.11591363E-04
    756     (1,756)               3.10531916E-06
    757     (1,757)               6.26390264E-04
    758     (1,758)               7.35078762E-04
    759     (1,759)               2.53928193E-04
    760     (1,760)               1.13430623E-04
    761     (1,761)               0.0000000     
    762     (1,762)               3.88179084E-05
    763     (1,763)               7.13142101E-04
    764     (1,764)               1.48247912E-02
    765     (1,765)               5.32210644E-03
    766     (1,766)               1.79249368E-05
    767     (1,767)               9.08528817E-06
    768     (1,768)               1.51479363E-02
    769     (1,769)               0.0000000     
    770     (1,770)               1.43976894E-02
    771     (1,771)               1.90608580E-07
    772     (1,772)               0.0000000     
    773     (1,773)               8.88705683E-03
    774     (1,774)               6.11088962E-03
    775     (1,775)               2.23085453E-06
    776     (1,776)               9.34402001E-04
    777     (1,777)               6.22992555E-06
    778     (1,778)               0.0000000     
    779     (1,779)               1.58503483E-03
    780     (1,780)               1.45022882E-04
    781     (1,781)               0.0000000     
    782     (1,782)               2.71116564E-06
    783     (1,783)               5.69399216E-05
    784     (1,784)               0.0000000     
    785     (1,785)               1.02824506E-04
    786     (1,786)               6.31533440E-03
    787     (1,787)               1.57213941E-04
    788     (1,788)               1.02390187E-04
    789     (1,789)               0.0000000     
    790     (1,790)               6.51408614E-07
    791     (1,791)               1.85304658E-03
    792     (1,792)               8.26085671E-06
    793     (1,793)               1.10182016E-05
    794     (1,794)               1.21543017E-07
    795     (1,795)               4.15316936E-03
    796     (1,796)               1.01075656E-05
    797     (1,797)               5.08534816E-05
    798     (1,798)               1.08557042E-03
    799     (1,799)               2.10730684E-03
    800     (1,800)               3.06201390E-07
    801     (1,801)               1.68121905E-07
    802     (1,802)               2.28723774E-03
    803     (1,803)               2.75193743E-06
    804     (1,804)               5.43142341E-04
    805     (1,805)               3.08407092E-07
    806     (1,806)               6.94592376E-04
    807     (1,807)               1.36079209E-02
    808     (1,808)               1.78113067E-07
    809     (1,809)               1.61329456E-03
    810     (1,810)               6.94889946E-07
    811     (1,811)               2.76548673E-03
    812     (1,812)               1.53159661E-07
    813     (1,813)               1.06053533E-06
    814     (1,814)               1.20198203E-05
    815     (1,815)               3.61797558E-05
    816     (1,816)               0.0000000     
    817     (1,817)               8.74283516E-03
    818     (1,818)               1.15895607E-07
    819     (1,819)               0.15226425    
    820     (1,820)               3.34056648E-02
    821     (1,821)               1.40883525E-07
    822     (1,822)               2.85967763E-03
    823     (1,823)               9.14345558E-04
    824     (1,824)               3.02836100E-02
    825     (1,825)               1.14526429E-02
    826     (1,826)               5.35727800E-05
    827     (1,827)               5.01394159E-03
    828     (1,828)               4.21602693E-03
    829     (1,829)               2.95483905E-07
    830     (1,830)               2.56984872E-02
    831     (1,831)               1.25189041E-06
    832     (1,832)               0.15155570    
    833     (1,833)               2.09980244E-05
    834     (1,834)               0.0000000     
    835     (1,835)               8.96593506E-06
    836     (1,836)               1.33592086E-03
    837     (1,837)               8.72859383E-06
    838     (1,838)               8.14022856E-06
    839     (1,839)               8.02922187E-08
    840     (1,840)               1.28204903E-07
    841     (1,841)               0.18175455    
    842     (1,842)               0.13841037    
    843     (1,843)               5.10267489E-06
    844     (1,844)               2.88874197E-02
    845     (1,845)               7.13570266E-05
    846     (1,846)               3.42409099E-05
    847     (1,847)               2.52491474E-02
    848     (1,848)               2.10811896E-06
    849     (1,849)               4.56114287E-02
    850     (1,850)               2.27361207E-02
    851     (1,851)               8.89012010E-04
    852     (1,852)               8.02189818E-02
    853     (1,853)               3.56957286E-05
    854     (1,854)               1.35950571E-06
    855     (1,855)               1.76730700E-07
    856     (1,856)               0.26074782    
    857     (1,857)               5.08775724E-03
    858     (1,858)               6.75117790E-02
    859     (1,859)               1.67814610E-05
    860     (1,860)               3.97483922E-02
    861     (1,861)               0.14331635    
    862     (1,862)               1.53844346E-07
    863     (1,863)               0.14497572    
    864     (1,864)               1.67694492E-04
    865     (1,865)               0.22629746    
    866     (1,866)               0.0000000     
    867     (1,867)               2.62779015E-05
    868     (1,868)               0.0000000     
    869     (1,869)               1.65136438E-04
    870     (1,870)               0.17146134    
    871     (1,871)               0.0000000     
    872     (1,872)               0.21713291    
    873     (1,873)               2.32885150E-04
    874     (1,874)               9.07148030E-03
    875     (1,875)               9.98803755E-04
    876     (1,876)               3.41779461E-02
    877     (1,877)               9.76245488E-08
    878     (1,878)               0.0000000     
    879     (1,879)               7.56074222E-04
    880     (1,880)               0.0000000     
    881     (1,881)               2.86423335E-07
    882     (1,882)               2.76497504E-05
    883     (1,883)               0.0000000     
    884     (1,884)               1.05686970E-05
    885     (1,885)               9.98060257E-08
    886     (1,886)               3.32217999E-03
    887     (1,887)               9.55385791E-04
    888     (1,888)               1.21644177E-03
    889     (1,889)               1.87324400E-03
    890     (1,890)               2.99606206E-07
    891     (1,891)               0.0000000     
    892     (1,892)               2.36162011E-06
    893     (1,893)               2.84436124E-03
    894     (1,894)               8.60326447E-06
    895     (1,895)               5.56122117E-07
    896     (1,896)               0.0000000     
    897     (1,897)               0.0000000     
    898     (1,898)               0.0000000     
    899     (1,899)               7.92140750E-08
    900     (1,900)               7.13431453E-06
    901     (1,901)               0.0000000     
    902     (1,902)               0.0000000     
    903     (1,903)               1.06277802E-07
    904     (1,904)               0.0000000     
    905     (1,905)               6.76806165E-08
    906     (1,906)               3.54585294E-04
    907     (1,907)               7.00397451E-04
    908     (1,908)               7.98130900E-07
    909     (1,909)               0.0000000     
    910     (1,910)               2.22623801E-03
    911     (1,911)               0.0000000     
    912     (1,912)               0.0000000     
    913     (1,913)               1.98477906E-07
    914     (1,914)               8.89415944E-08
    915     (1,915)               0.0000000     
    916     (1,916)               4.29237120E-04
    917     (1,917)               1.03614763E-05
    918     (1,918)               6.14948810E-05
    919     (1,919)               2.71973600E-04
    920     (1,920)               1.23856080E-05
    921     (1,921)               2.75691641E-06
    922     (1,922)               5.16099186E-07
    923     (1,923)               5.03394292E-04
    924     (1,924)               0.0000000     
    925     (1,925)               5.61399328E-04
    926     (1,926)               0.0000000     
    927     (1,927)               0.16379701    
    928     (1,928)               5.59272360E-06
    929     (1,929)               4.83719566E-04
    930     (1,930)               0.0000000     
    931     (1,931)               1.48018462E-03
    932     (1,932)               1.22306840E-05
    933     (1,933)               3.15028997E-06
    934     (1,934)               9.07352031E-05
    935     (1,935)               7.44087500E-06
    936     (1,936)               1.94056606E-06
    937     (1,937)               1.61747485E-05
    938     (1,938)               5.17601725E-05
    939     (1,939)               1.02375427E-04
    940     (1,940)               1.32808033E-05
    941     (1,941)               1.63110186E-06
    942     (1,942)               2.06954482E-04
    943     (1,943)               1.14559352E-05
    944     (1,944)               2.24971133E-04
    945     (1,945)               7.16585098E-07
    946     (1,946)               0.0000000     
    947     (1,947)               9.40449031E-06
    948     (1,948)               4.18479164E-04
    949     (1,949)               4.27782134E-05
    950     (1,950)               3.99722074E-04
    951     (1,951)               2.69632707E-05
    952     (1,952)               1.11731074E-05
    953     (1,953)               9.37459192E-04
    954     (1,954)               8.46324522E-08
    955     (1,955)               4.74051787E-04
    956     (1,956)               1.89648260E-03
    957     (1,957)               9.84407249E-05
    958     (1,958)               2.81547908E-04
    959     (1,959)               1.06833144E-04
    960     (1,960)               3.68847887E-06
    961     (1,961)               0.0000000     
    962     (1,962)               0.0000000     
    963     (1,963)               6.44355442E-08
    964     (1,964)               7.13731902E-06
    965     (1,965)               0.0000000     
    966     (1,966)               5.06035654E-05
    967     (1,967)               1.72451078E-07
    968     (1,968)               2.44123991E-03
    969     (1,969)               6.33608776E-08
    970     (1,970)               5.51874412E-04
    971     (1,971)               0.0000000     
    972     (1,972)               9.41558183E-07
    973     (1,973)               1.96135891E-03
    974     (1,974)               1.01964207E-07
    975     (1,975)               0.0000000     
    976     (1,976)               4.75583923E-05
    977     (1,977)               7.17172077E-07
    978     (1,978)               0.0000000     
    979     (1,979)               0.0000000     
    980     (1,980)               0.0000000     
    981     (1,981)               0.0000000     
    982     (1,982)               2.51767206E-05
    983     (1,983)               0.0000000     
    984     (1,984)               1.20963446E-05
    985     (1,985)               2.39584083E-03
    986     (1,986)               6.67403890E-05
    987     (1,987)               2.39403387E-04
    988     (1,988)               3.64490550E-04
    989     (1,989)               5.80440282E-04
    990     (1,990)               7.49040962E-05
    991     (1,991)               7.14566467E-05
    992     (1,992)               2.18633112E-04
    993     (1,993)               0.0000000     
    994     (1,994)               1.41260126E-04
    995     (1,995)               1.39328865E-03
    996     (1,996)               2.71549857E-04
    997     (1,997)               3.50793695E-04
    998     (1,998)               1.15192683E-03
    999     (1,999)               2.33813603E-06
    1000    (1,1000)              1.48822772E-04
    1001    (1,1001)              1.20928542E-04
    1002    (1,1002)              3.43111089E-03
    1003    (1,1003)              1.37240382E-03
    1004    (1,1004)              4.99715848E-04
    1005    (1,1005)              4.25373582E-04
    1006    (1,1006)              6.59675029E-04
    1007    (1,1007)              1.47877096E-03
    1008    (1,1008)              8.35321972E-05
    1009    (1,1009)              1.60442220E-04
    1010    (1,1010)              4.43065516E-05
    1011    (1,1011)              6.68407023E-05
    1012    (1,1012)              1.20589676E-03
    1013    (1,1013)              2.75715203E-04
    1014    (1,1014)              1.80043497E-04
    1015    (1,1015)              7.49867570E-02
    1016    (1,1016)              1.00519717E-06
    1017    (1,1017)              7.40706564E-05
    1018    (1,1018)              8.45475712E-07
    1019    (1,1019)              8.64139731E-05
    1020    (1,1020)              2.73102793E-03
    1021    (1,1021)              5.88494546E-05
    1022    (1,1022)              1.08977681E-05
    1023    (1,1023)              4.27131620E-03
    1024    (1,1024)              8.72345469E-04
    1025    (1,1025)              9.57427009E-07
    1026    (1,1026)              4.34908251E-06
    1027    (1,1027)              5.14555638E-04
    1028    (1,1028)              3.58915467E-06
    1029    (1,1029)              1.61716420E-03
    1030    (1,1030)              1.18248247E-06
    1031    (1,1031)              5.11941204E-03
    1032    (1,1032)              2.72792339E-04
    1033    (1,1033)              2.88535276E-04
    1034    (1,1034)              0.13602651    
    1035    (1,1035)              0.0000000     
    1036    (1,1036)              3.57004960E-06
    1037    (1,1037)              2.44615993E-05
    1038    (1,1038)              0.0000000     
    1039    (1,1039)              0.0000000     
    1040    (1,1040)              0.0000000     
    1041    (1,1041)              7.09086944E-08
    1042    (1,1042)              6.67762688E-08
    1043    (1,1043)              0.0000000     
    1044    (1,1044)              3.25782026E-05
    1045    (1,1045)              1.08494283E-07
    1046    (1,1046)              2.07706338E-03
    1047    (1,1047)              5.48392931E-04
    1048    (1,1048)              1.67950832E-04
    1049    (1,1049)              9.20282603E-06
    1050    (1,1050)              1.09915504E-03
    1051    (1,1051)              1.76570773E-03
    1052    (1,1052)              2.42291558E-06
    1053    (1,1053)              0.0000000     
    1054    (1,1054)              1.15892771E-05
    1055    (1,1055)              0.0000000     
    1056    (1,1056)              5.09945778E-03
    1057    (1,1057)              1.59423524E-07
    1058    (1,1058)              1.93037943E-03
    1059    (1,1059)              2.18333770E-05
    1060    (1,1060)              9.32828203E-08
    1061    (1,1061)              4.60895408E-03
    1062    (1,1062)              3.02107769E-05
    1063    (1,1063)              4.08732731E-07
    1064    (1,1064)              9.60744556E-05
    1065    (1,1065)              1.72001144E-07
    1066    (1,1066)              7.30051543E-04
    1067    (1,1067)              2.83775042E-05
    1068    (1,1068)              1.01598852E-05
    1069    (1,1069)              3.02381662E-04
    1070    (1,1070)              1.58606325E-03
    1071    (1,1071)              8.31735442E-06
    1072    (1,1072)              1.61239741E-04
    1073    (1,1073)              0.0000000     
    1074    (1,1074)              6.97386867E-05
    1075    (1,1075)              6.39341461E-07
    1076    (1,1076)              8.48561215E-05
    1077    (1,1077)              1.64710420E-04
    1078    (1,1078)              1.48712781E-03
    1079    (1,1079)              4.70832560E-05
    1080    (1,1080)              4.69436699E-05
    1081    (1,1081)              9.21028525E-05
    1082    (1,1082)              9.50233980E-04
    1083    (1,1083)              1.03247504E-07
    1084    (1,1084)              8.21370421E-04
    1085    (1,1085)              4.33176667E-04
    1086    (1,1086)              9.44350852E-06
    1087    (1,1087)              5.11244904E-05
    1088    (1,1088)              1.80465381E-05
    1089    (1,1089)              5.34951391E-06
    1090    (1,1090)              8.59324854E-07
    1091    (1,1091)              7.92223056E-05
    1092    (1,1092)              2.74704613E-05
    1093    (1,1093)              0.0000000     
    1094    (1,1094)              1.09370052E-03
    1095    (1,1095)              6.02100259E-06
    1096    (1,1096)              1.35743025E-03
    1097    (1,1097)              7.75038145E-05
    1098    (1,1098)              8.76346818E-06
    1099    (1,1099)              1.49371217E-05
    1100    (1,1100)              7.80280600E-04
    1101    (1,1101)              3.50035206E-06
    1102    (1,1102)              3.10823449E-05
    1103    (1,1103)              1.54539163E-04
    1104    (1,1104)              3.63824353E-04
    1105    (1,1105)              1.78784634E-03
    1106    (1,1106)              1.40695639E-06
    1107    (1,1107)              2.50408108E-04
    1108    (1,1108)              3.94200605E-05
    1109    (1,1109)              7.86665150E-05
    1110    (1,1110)              2.56492973E-05
    1111    (1,1111)              2.12732543E-04
    1112    (1,1112)              0.0000000     
    1113    (1,1113)              1.89036472E-06
    1114    (1,1114)              9.89676496E-06
    1115    (1,1115)              1.27243321E-03
    1116    (1,1116)              3.23407806E-04
    1117    (1,1117)              4.08730934E-07
    1118    (1,1118)              2.01569924E-04
    1119    (1,1119)              4.21623657E-03
    1120    (1,1120)              6.39200607E-05
    1121    (1,1121)              2.10004614E-05
    1122    (1,1122)              8.37779394E-06
    1123    (1,1123)              5.84162949E-05
    1124    (1,1124)              3.78186061E-04
    1125    (1,1125)              2.68068552E-04
    1126    (1,1126)              0.0000000     
    1127    (1,1127)              3.73884947E-05
    1128    (1,1128)              6.73278284E-03
    1129    (1,1129)              5.37453011E-04
    1130    (1,1130)              1.59310687E-05
    1131    (1,1131)              3.16625501E-04
    1132    (1,1132)              1.38587751E-04
    1133    (1,1133)              1.05914457E-03
    1134    (1,1134)              1.54707342E-04
    1135    (1,1135)              9.86461185E-05
    1136    (1,1136)              7.08445892E-05
    1137    (1,1137)              6.26634339E-05
    1138    (1,1138)              2.70572862E-04
    1139    (1,1139)              7.01927010E-05
    1140    (1,1140)              8.86904190E-05
    1141    (1,1141)              1.02989946E-03
    1142    (1,1142)              1.65871211E-07
    1143    (1,1143)              1.94123173E-04
    1144    (1,1144)              1.32873017E-04
    1145    (1,1145)              6.88037179E-07
    1146    (1,1146)              8.09393626E-05
    1147    (1,1147)              9.18661998E-05
    1148    (1,1148)              7.98142187E-06
    1149    (1,1149)              7.93575094E-05
    1150    (1,1150)              1.82744595E-04
    1151    (1,1151)              2.14838949E-05
    1152    (1,1152)              6.03346409E-05
    1153    (1,1153)              0.0000000     
    1154    (1,1154)              3.22737967E-07
    1155    (1,1155)              1.54914415E-04
    1156    (1,1156)              0.0000000     
    1157    (1,1157)              1.24519226E-05
    1158    (1,1158)              2.71029991E-04
    1159    (1,1159)              4.33896931E-06
    1160    (1,1160)              9.46756192E-07
    1161    (1,1161)              5.50063996E-04
    1162    (1,1162)              0.0000000     
    1163    (1,1163)              1.39064911E-06
    1164    (1,1164)              1.05014235E-03
    1165    (1,1165)              1.82422871E-04
    1166    (1,1166)              4.54156269E-04
    1167    (1,1167)              3.01182732E-05
    1168    (1,1168)              3.40407555E-04
    1169    (1,1169)              3.19379205E-04
    1170    (1,1170)              9.03178844E-04
    1171    (1,1171)              0.0000000     
    1172    (1,1172)              7.69346946E-05
    1173    (1,1173)              7.32923337E-07
    1174    (1,1174)              4.64259546E-04
    1175    (1,1175)              1.68950054E-04
    1176    (1,1176)              2.83112462E-06
    1177    (1,1177)              2.75483488E-05
    1178    (1,1178)              2.21024358E-05
    1179    (1,1179)              8.57976714E-05
    1180    (1,1180)              5.12838474E-04
    1181    (1,1181)              2.91192367E-04
    1182    (1,1182)              2.21137228E-05
    1183    (1,1183)              1.41187861E-04
    1184    (1,1184)              2.38325340E-05
    1185    (1,1185)              5.44252127E-04
    1186    (1,1186)              2.36928395E-04
    1187    (1,1187)              1.57373712E-03
    1188    (1,1188)              1.16303696E-05
    1189    (1,1189)              2.90705059E-04
    1190    (1,1190)              6.34252216E-05
    1191    (1,1191)              0.0000000     
    1192    (1,1192)              4.06125916E-06
    1193    (1,1193)              1.99048859E-03
    1194    (1,1194)              2.51935948E-07
    1195    (1,1195)              8.00591996E-07
    1196    (1,1196)              1.57596169E-04
    1197    (1,1197)              1.02778768E-04
    1198    (1,1198)              8.40712555E-07
    1199    (1,1199)              4.97245823E-05
    1200    (1,1200)              2.12225699E-04
    1201    (1,1201)              9.20570333E-04
    1202    (1,1202)              2.02632872E-06
    1203    (1,1203)              1.80446874E-04
    1204    (1,1204)              0.0000000     
    1205    (1,1205)              1.01696613E-05
    1206    (1,1206)              3.03546247E-05
    1207    (1,1207)              2.27391789E-04
    1208    (1,1208)              3.75567591E-05
    1209    (1,1209)              3.09382710E-04
    1210    (1,1210)              2.68624183E-05
    1211    (1,1211)              1.46903191E-03
    1212    (1,1212)              1.10148569E-05
    1213    (1,1213)              1.10083059E-05
    1214    (1,1214)              5.34382767E-04
    1215    (1,1215)              1.19580823E-07
    1216    (1,1216)              0.0000000     
    1217    (1,1217)              1.06277929E-07
    1218    (1,1218)              9.11167660E-08
    1219    (1,1219)              7.72045429E-04
    1220    (1,1220)              8.67745288E-08
    1221    (1,1221)              2.16535265E-05
    1222    (1,1222)              7.80154388E-05
    1223    (1,1223)              2.14667853E-05
    1224    (1,1224)              8.29704365E-06
    1225    (1,1225)              2.47476389E-06
    1226    (1,1226)              9.76776313E-06
    1227    (1,1227)              3.06572596E-05
    1228    (1,1228)              4.35057352E-06
    1229    (1,1229)              0.0000000     
    1230    (1,1230)              1.46090524E-03
    1231    (1,1231)              0.0000000     
    1232    (1,1232)              7.90779430E-06
    1233    (1,1233)              4.80662854E-07
    1234    (1,1234)              1.93915146E-06
    1235    (1,1235)              2.72244800E-07
    1236    (1,1236)              5.85628695E-05
    1237    (1,1237)              0.0000000     
    1238    (1,1238)              1.86588262E-03
    1239    (1,1239)              2.27560111E-04
    1240    (1,1240)              4.88132269E-04
    1241    (1,1241)              1.09756343E-05
    1242    (1,1242)              0.0000000     
    1243    (1,1243)              4.63914563E-04
    1244    (1,1244)              5.23383283E-05
    1245    (1,1245)              4.55548404E-04
    1246    (1,1246)              7.71749937E-05
    1247    (1,1247)              6.86893425E-04
    1248    (1,1248)              1.17267689E-04
    1249    (1,1249)              0.0000000     
    1250    (1,1250)              0.0000000     
    1251    (1,1251)              6.10313401E-06
    1252    (1,1252)              2.32884276E-05
    1253    (1,1253)              0.0000000     
    1254    (1,1254)              9.85095785E-05
    1255    (1,1255)              2.41915244E-04
    1256    (1,1256)              4.42205211E-04
    1257    (1,1257)              0.0000000     
    1258    (1,1258)              1.99597718E-04
    1259    (1,1259)              0.0000000     
    1260    (1,1260)              2.81033255E-07
    1261    (1,1261)              2.35300639E-03
    1262    (1,1262)              5.43355680E-05
    1263    (1,1263)              5.39004689E-05
    1264    (1,1264)              0.0000000     
    1265    (1,1265)              0.0000000     
    1266    (1,1266)              8.28291033E-03
    1267    (1,1267)              7.14035441E-05
    1268    (1,1268)              3.60905935E-05
    1269    (1,1269)              0.0000000     
    1270    (1,1270)              3.72800663E-04
    1271    (1,1271)              2.85379457E-03
    1272    (1,1272)              1.73111203E-04
    1273    (1,1273)              7.37775101E-05
    1274    (1,1274)              6.69880905E-07
    1275    (1,1275)              2.71761861E-05
    1276    (1,1276)              9.30039325E-06
    1277    (1,1277)              0.0000000     
    1278    (1,1278)              6.04924964E-06
    1279    (1,1279)              5.53808967E-04
    1280    (1,1280)              2.01315257E-03
    1281    (1,1281)              2.94862465E-04
    1282    (1,1282)              0.0000000     
    1283    (1,1283)              2.00170569E-04
    1284    (1,1284)              1.38145398E-04
    1285    (1,1285)              7.03677232E-04
    1286    (1,1286)              4.07268865E-04
    1287    (1,1287)              0.0000000     
    1288    (1,1288)              0.0000000     
    1289    (1,1289)              1.85542862E-04
    1290    (1,1290)              8.02669117E-04
    1291    (1,1291)              3.25487003E-03
    1292    (1,1292)              0.0000000     
    1293    (1,1293)              0.0000000     
    1294    (1,1294)              0.0000000     
    1295    (1,1295)              0.0000000     
    1296    (1,1296)              1.05048593E-03
    1297    (1,1297)              3.79188687E-04
    1298    (1,1298)              3.91770649E-04
    1299    (1,1299)              0.0000000     
    1300    (1,1300)              1.96471681E-03
    1301    (1,1301)              6.35167545E-04
    1302    (1,1302)              0.0000000     
    1303    (1,1303)              0.0000000     
    1304    (1,1304)              0.0000000     
    1305    (1,1305)              2.31429037E-04
    1306    (1,1306)              0.0000000     
    1307    (1,1307)              4.50555534E-04
    1308    (1,1308)              1.07985998E-04
    1309    (1,1309)              0.0000000     
    1310    (1,1310)              0.0000000     
    1311    (1,1311)              5.49413615E-04
    1312    (1,1312)              2.27157156E-04
    1313    (1,1313)              1.08002120E-04
    1314    (1,1314)              0.0000000     
    1315    (1,1315)              0.0000000     
    1316    (1,1316)              4.00144956E-02
    1317    (1,1317)              2.74235080E-04
    1318    (1,1318)              1.38104375E-02
    1319    (1,1319)              0.0000000     
    1320    (1,1320)              7.37151724E-04
    1321    (1,1321)              8.86709349E-04
    1322    (1,1322)              5.33572976E-04
    1323    (1,1323)              1.86911567E-04
    1324    (1,1324)              0.0000000     
    1325    (1,1325)              1.06982830E-03
    1326    (1,1326)              2.16412122E-03
    1327    (1,1327)              0.0000000     
    1328    (1,1328)              0.0000000     
    1329    (1,1329)              1.07440729E-02
    1330    (1,1330)              0.0000000     
    1331    (1,1331)              0.0000000     
    1332    (1,1332)              0.0000000     
    1333    (1,1333)              0.0000000     
    1334    (1,1334)              2.64118849E-04
    1335    (1,1335)              0.0000000     
    1336    (1,1336)              1.23855128E-03
    1337    (1,1337)              3.66528867E-03
    1338    (1,1338)              2.27209163E-04
    1339    (1,1339)              3.46672079E-03
    1340    (1,1340)              1.38252633E-03
    1341    (1,1341)              4.55457515E-04
    1342    (1,1342)              1.86607257E-03
    1343    (1,1343)              1.73145585E-03
    1344    (1,1344)              2.86569720E-04
    1345    (1,1345)              3.38382348E-04
    1346    (1,1346)              7.88899978E-03
    1347    (1,1347)              1.22122838E-03
    1348    (1,1348)              5.85443029E-04
    1349    (1,1349)              1.80812161E-03
    1350    (1,1350)              4.20916109E-03
    1351    (1,1351)              1.74849363E-03
    1352    (1,1352)              4.73672295E-03
    1353    (1,1353)              7.44408247E-04
    1354    (1,1354)              0.0000000     
    1355    (1,1355)              3.92747196E-03
    1356    (1,1356)              0.0000000     
    1357    (1,1357)              6.42912032E-04
    1358    (1,1358)              4.38440381E-04
    1359    (1,1359)              0.0000000     
    1360    (1,1360)              0.0000000     
    1361    (1,1361)              0.0000000     
    1362    (1,1362)              3.70560609E-04
    1363    (1,1363)              0.0000000     
    1364    (1,1364)              9.48121218E-04
    1365    (1,1365)              0.0000000     
    1366    (1,1366)              1.46978916E-03
    1367    (1,1367)              0.0000000     
    1368    (1,1368)              4.95899267E-04
    1369    (1,1369)              1.12325896E-03
    1370    (1,1370)              7.59500917E-04
    1371    (1,1371)              1.44954962E-03
    1372    (1,1372)              1.32866222E-03
    1373    (1,1373)              0.0000000     
    1374    (1,1374)              0.0000000     
    1375    (1,1375)              0.0000000     
    1376    (1,1376)              5.53943940E-04
    1377    (1,1377)              0.0000000     
    1378    (1,1378)              0.0000000     
    1379    (1,1379)              5.95200178E-04
    1380    (1,1380)              1.58484839E-03
    1381    (1,1381)              0.0000000     
    1382    (1,1382)              0.0000000     
    1383    (1,1383)              6.51164114E-04
    1384    (1,1384)              3.18589869E-04
    1385    (1,1385)              3.33577837E-04
    1386    (1,1386)              5.30719869E-04
    1387    (1,1387)              1.04348941E-03
    1388    (1,1388)              0.0000000     
    1389    (1,1389)              1.98444631E-03
    1390    (1,1390)              9.58412015E-04
    1391    (1,1391)              0.0000000     
    1392    (1,1392)              0.0000000     
    1393    (1,1393)              0.0000000     
    1394    (1,1394)              0.0000000     
    1395    (1,1395)              0.0000000     
    1396    (1,1396)              0.15228528    
    1397    (1,1397)              0.0000000     
    1398    (1,1398)              0.0000000     
    1399    (1,1399)              0.0000000     
    1400    (1,1400)              0.0000000     
    1401    (1,1401)              0.0000000     
    1402    (1,1402)              0.0000000     
    1403    (1,1403)              5.33256920E-03
    1404    (1,1404)              1.12437596E-03
    1405    (1,1405)              0.0000000     
    1406    (1,1406)              7.20997508E-04
    1407    (1,1407)              7.64493328E-04
    1408    (1,1408)              6.35533486E-04
    1409    (1,1409)              0.0000000     
    1410    (1,1410)              0.0000000     
    1411    (1,1411)              2.47812246E-03
    1412    (1,1412)              0.0000000     
    1413    (1,1413)              0.0000000     
    1414    (1,1414)              0.0000000     
    1415    (1,1415)              0.0000000     
    1416    (1,1416)              0.0000000     
    1417    (1,1417)              5.16167005E-04
    1418    (1,1418)              0.0000000     
    1419    (1,1419)              0.0000000     
    1420    (1,1420)              0.0000000     
    1421    (1,1421)              5.12606832E-04
    1422    (1,1422)              3.31378578E-04
    1423    (1,1423)              4.99046330E-04
    1424    (1,1424)              3.70274612E-04
    1425    (1,1425)              6.62554071E-04
    1426    (1,1426)              0.0000000     
    1427    (1,1427)              4.93152496E-02
    1428    (1,1428)              0.0000000     
    1429    (1,1429)              0.0000000     
    1430    (1,1430)              5.92590234E-03
    1431    (1,1431)              0.0000000     
    1432    (1,1432)              0.0000000     
    1433    (1,1433)              9.36350775E-04
    1434    (1,1434)              0.0000000     
    1435    (1,1435)              1.31596595E-03
    1436    (1,1436)              7.28493638E-04
    1437    (1,1437)              0.0000000     
    1438    (1,1438)              0.0000000     
    1439    (1,1439)              0.0000000     
    1440    (1,1440)              0.0000000     
    1441    (1,1441)              0.0000000     
    1442    (1,1442)              0.0000000     
    1443    (1,1443)              9.03822282E-04
    1444    (1,1444)              1.48018418E-03
    1445    (1,1445)              6.94408794E-03
    1446    (1,1446)              0.16574084    
    1447    (1,1447)              0.0000000     
    1448    (1,1448)              2.48251121E-02
    1449    (1,1449)              0.0000000     
    1450    (1,1450)              1.19530715E-03
    1451    (1,1451)              0.0000000     
    1452    (1,1452)              1.29953061E-03
    1453    (1,1453)              0.0000000     
    1454    (1,1454)              0.0000000     
    1455    (1,1455)              3.33780621E-04
[...]
    4412    (1,4412)              0.16933903    
    4413    (1,4413)              0.24057382    
    4414    (1,4414)              0.20142806    
    4415    (1,4415)              0.14452136    
    4416    (1,4416)              0.22014042    
    4417    (1,4417)              0.12973740    
    4418    (1,4418)              0.19984234    
    4419    (1,4419)              0.14129438    
    4420    (1,4420)              0.16896805    
    4421    (1,4421)              0.20313196    
    4422    (1,4422)              0.21521479    
    4423    (1,4423)              0.15416011    
    4424    (1,4424)              0.19643901    
    4425    (1,4425)              0.13627639    
    4426    (1,4426)              0.17234195    
    4427    (1,4427)              0.13104328    
    4428    (1,4428)              0.22231025    
    4429    (1,4429)              0.16220256    
    4430    (1,4430)              0.13347960    
    4431    (1,4431)              0.10379052    
    4432    (1,4432)              0.13376856    
    4433    (1,4433)              0.15373045    
    4434    (1,4434)              0.15801108    
    4435    (1,4435)              0.15902942    
    4436    (1,4436)              0.13930061    
    4437    (1,4437)              0.15533260    
    4438    (1,4438)              0.21384245    
    4439    (1,4439)              0.31898810    
    4440    (1,4440)              0.12208365    
    4441    (1,4441)              0.17507814    
    4442    (1,4442)              0.24659304    
    4443    (1,4443)              0.14692900    
    4444    (1,4444)              0.20908853    
    4445    (1,4445)              0.14273518    
    4446    (1,4446)              0.20721349    
    4447    (1,4447)              0.17437576    
    4448    (1,4448)              0.25816084    
    4449    (1,4449)              0.13360067    
    4450    (1,4450)              0.17567710    
    4451    (1,4451)              0.21773372    
    4452    (1,4452)              0.13612811    
    4453    (1,4453)              0.21770211    
    4454    (1,4454)              0.26481941    
    4455    (1,4455)              0.24572291    
    4456    (1,4456)              0.20697032    
    4457    (1,4457)              0.11385947    
    4458    (1,4458)              0.17392462    
    4459    (1,4459)              0.19634183    
    4460    (1,4460)              0.13193611    
    4461    (1,4461)              0.15218393    
    4462    (1,4462)              0.22276399    
    4463    (1,4463)              0.19848972    
    4464    (1,4464)              0.14894550    
    4465    (1,4465)              0.16887273    
    4466    (1,4466)              0.10397292    
    4467    (1,4467)              0.14602384    
    4468    (1,4468)              0.13617620    
    4469    (1,4469)              0.11954684    
    4470    (1,4470)              0.26269993    
    4471    (1,4471)              0.24026531    
    4472    (1,4472)              0.14761880    
    4473    (1,4473)              0.14879275    
    4474    (1,4474)              0.14840150    
    4475    (1,4475)              0.21458137    
    4476    (1,4476)              0.17937235    
    4477    (1,4477)              0.17703136    
    4478    (1,4478)              0.16815799    
    4479    (1,4479)              0.15942228    
    4480    (1,4480)              0.24521230    
    4481    (1,4481)              0.22452318    
    4482    (1,4482)              0.21869240    
    4483    (1,4483)              0.16639495    
    4484    (1,4484)              0.14811856    
    4485    (1,4485)              0.14979093    
    4486    (1,4486)              0.15173994    
    4487    (1,4487)              0.18135657    
    4488    (1,4488)              0.18594318    
    4489    (1,4489)              0.15646877    
    4490    (1,4490)              0.17735647    
    4491    (1,4491)              0.31058023    
    4492    (1,4492)              0.16314911    
    4493    (1,4493)              0.20542122    
    4494    (1,4494)              0.21690519    
    4495    (1,4495)              0.16123050    
    4496    (1,4496)              0.18333463    
    4497    (1,4497)              0.24945680    
    4498    (1,4498)              0.21082662    
    4499    (1,4499)              0.23424095    
    4500    (1,4500)              0.21688225    
    4501    (1,4501)              0.21603646    
    4502    (1,4502)              0.28068483    
    4503    (1,4503)              0.33936655    
    4504    (1,4504)              0.26489771    
    4505    (1,4505)              0.17151442    
    4506    (1,4506)              0.21486895    
    4507    (1,4507)              0.20681254    
    4508    (1,4508)              0.22083812    
    4509    (1,4509)              0.19390004    
    4510    (1,4510)              0.19952684    
    4511    (1,4511)              0.27665951    
    4512    (1,4512)              0.22150509    
    4513    (1,4513)              0.16924965    
    4514    (1,4514)              0.19709895    
    4515    (1,4515)              0.20895523    
    4516    (1,4516)              0.16266230    
    4517    (1,4517)              0.26067870    
    4518    (1,4518)              0.18695064    
    4519    (1,4519)              0.17477410    
    4520    (1,4520)              0.15410775    
    4521    (1,4521)              0.25250709    
    4522    (1,4522)              0.20165486    
    4523    (1,4523)              0.19741965    
    4524    (1,4524)              0.23821958    
    4525    (1,4525)              0.20297781    
    4526    (1,4526)              0.18346943    
    4527    (1,4527)              0.21920015    
    4528    (1,4528)              0.27169728    
    4529    (1,4529)              0.23080404    
    4530    (1,4530)              0.18046835    
    4531    (1,4531)              0.19938744    
    4532    (1,4532)              0.26204588    
    4533    (1,4533)              0.19226721    
    4534    (1,4534)              0.23057509    
    4535    (1,4535)              0.17229521    
    4536    (1,4536)              0.17852810    
    4537    (1,4537)              0.17578232    
    4538    (1,4538)              0.16407189    
    4539    (1,4539)              0.13343237    
    4540    (1,4540)              0.15936238    
    4541    (1,4541)              0.19228542    
    4542    (1,4542)              0.24074817    
    4543    (1,4543)              0.20511392    
    4544    (1,4544)              0.22367555    
    4545    (1,4545)              0.24463173    
    4546    (1,4546)              0.27465595    
    4547    (1,4547)              0.20458822    
    4548    (1,4548)              0.24145992    
    4549    (1,4549)              0.13332316    
    4550    (1,4550)              0.15375777    
    4551    (1,4551)              0.20810583    
    4552    (1,4552)              0.24629324    
    4553    (1,4553)              0.15042216    
    4554    (1,4554)              0.14701553    
    4555    (1,4555)              0.15212360    
    4556    (1,4556)              0.14950912    
    4557    (1,4557)              0.26235115    
    4558    (1,4558)              0.31004053    
    4559    (1,4559)              0.16917716    
    4560    (1,4560)              0.24756664    
    4561    (1,4561)              0.16585546    
    4562    (1,4562)              0.17939545    
    4563    (1,4563)              0.13581567    
    4564    (1,4564)              0.16074563    
    4565    (1,4565)              0.20278637    
    4566    (1,4566)              0.14313646    
    4567    (1,4567)              0.15784080    
    4568    (1,4568)              0.26430540    
    4569    (1,4569)              0.15292578    
    4570    (1,4570)              0.17989673    
    4571    (1,4571)              0.16189510    
    4572    (1,4572)              0.25637957    
    4573    (1,4573)              0.26272615    
    4574    (1,4574)              0.21029031    
    4575    (1,4575)              0.21414556    
    4576    (1,4576)              0.19664057    
    4577    (1,4577)              0.18583811    
    4578    (1,4578)              0.22661722    
    4579    (1,4579)              0.19429697    
    4580    (1,4580)              4.50361975E-02
    4581    (1,4581)              3.00858214E-02
    4582    (1,4582)              4.10844368E-02
    4583    (1,4583)              3.58847664E-02
    4584    (1,4584)              3.51836434E-02
    4585    (1,4585)              0.20739545    
    4586    (1,4586)              0.20351518    
    4587    (1,4587)              0.17077150    
    4588    (1,4588)              0.24856925    
    4589    (1,4589)              0.23461846    
    4590    (1,4590)              0.22616443    
    4591    (1,4591)              0.28829819    
    4592    (1,4592)              0.23215899    
    4593    (1,4593)              0.19763307    
    4594    (1,4594)              0.18249154    
    4595    (1,4595)              0.27964511    
    4596    (1,4596)              0.28346220    
    4597    (1,4597)              0.18651791    
    4598    (1,4598)              0.28549685    
    4599    (1,4599)              0.16471717    
    4600    (1,4600)              0.22416486    
    4601    (1,4601)              0.22942298    
    4602    (1,4602)              0.19571359    
    4603    (1,4603)              0.24930430    
    4604    (1,4604)              0.15632559    
    4605    (1,4605)              0.20570292    
    4606    (1,4606)              0.19415527    
    4607    (1,4607)              0.18819481    
    4608    (1,4608)              0.19766258    
    4609    (1,4609)              0.16559704    
    4610    (1,4610)              0.22737257    
    4611    (1,4611)              0.20994013    
    4612    (1,4612)              0.21476654    
    4613    (1,4613)              0.19472914    
    4614    (1,4614)              0.19303359    
    4615    (1,4615)              0.21209257    
    4616    (1,4616)              0.24443349    
    4617    (1,4617)              0.16702040    
    4618    (1,4618)              0.14546965    
    4619    (1,4619)              0.24397070    
    4620    (1,4620)              0.21713749    
    4621    (1,4621)              0.21778390    
    4622    (1,4622)              0.24982053    
    4623    (1,4623)              0.15132541    
    4624    (1,4624)              0.25309932    
    4625    (1,4625)              0.15673859    
    4626    (1,4626)              0.23518428    
    4627    (1,4627)              0.17053886    
    4628    (1,4628)              0.18531849    
    4629    (1,4629)              0.18975858    
    4630    (1,4630)              0.27542817    
    4631    (1,4631)              0.26184730    
    4632    (1,4632)              0.22560213    
    4633    (1,4633)              0.18282681    
    4634    (1,4634)              0.21486552    
    4635    (1,4635)              0.17584359    
    4636    (1,4636)              0.21678121    
    4637    (1,4637)              0.19794172    
    4638    (1,4638)              0.14792915    
    4639    (1,4639)              0.24738422    
    4640    (1,4640)              0.12996352    
    4641    (1,4641)              0.17081041    
    4642    (1,4642)              0.18284612    
    4643    (1,4643)              0.26275762    
    4644    (1,4644)              0.16415844    
    4645    (1,4645)              0.14039040    
    4646    (1,4646)              0.24385922    
    4647    (1,4647)              0.14907653    
    4648    (1,4648)              0.12352702    
    4649    (1,4649)              0.20464836    
    4650    (1,4650)              0.26237983    
    4651    (1,4651)              0.26209146    
    4652    (1,4652)              0.23341311    
    4653    (1,4653)              0.29885626    
    4654    (1,4654)              0.20351906    
    4655    (1,4655)              0.18275996    
    4656    (1,4656)              0.30850719    
    4657    (1,4657)              0.22581616    
    4658    (1,4658)              0.22959790    
    4659    (1,4659)              3.15130920E-02
    4660    (1,4660)              0.27032802    
    4661    (1,4661)              0.19978408    
    4662    (1,4662)              0.26706330    
    4663    (1,4663)              0.20109132    
    4664    (1,4664)              0.18177959    
    4665    (1,4665)              0.29472280    
    4666    (1,4666)              0.18394149    
    4667    (1,4667)              0.19457745    
    4668    (1,4668)              0.13122848    
    4669    (1,4669)              0.18128316    
    4670    (1,4670)              0.19148782    
    4671    (1,4671)              0.15497728    
    4672    (1,4672)              0.22885023    
    4673    (1,4673)              0.20901395    
    4674    (1,4674)              0.15689895    
    4675    (1,4675)              0.21670462    
    4676    (1,4676)              0.15478010    
    4677    (1,4677)              0.14378761    
    4678    (1,4678)              0.29568012    
    4679    (1,4679)              0.14134067    
    4680    (1,4680)              0.21976504    
    4681    (1,4681)              0.14219487    
    4682    (1,4682)              0.29282284    
    4683    (1,4683)              0.17783445    
    4684    (1,4684)              0.17864905    
    4685    (1,4685)              0.18779222    
    4686    (1,4686)              0.24717114    
    4687    (1,4687)              0.14456695    
    4688    (1,4688)              0.16546200    
    4689    (1,4689)              0.11775931    
    4690    (1,4690)              0.13310892    
    4691    (1,4691)              0.12345547    
    4692    (1,4692)              0.26136611    
    4693    (1,4693)              0.15226401    
    4694    (1,4694)              0.14704787    
    4695    (1,4695)              0.16977746    
    4696    (1,4696)              0.13954038    
    4697    (1,4697)              0.22565613    
    4698    (1,4698)              0.13761161    
    4699    (1,4699)              0.21295649    
    4700    (1,4700)              0.17482810    
    4701    (1,4701)              0.14477807    
    4702    (1,4702)              0.12389489    
    4703    (1,4703)              0.15250615    
    4704    (1,4704)              0.13386897    
    4705    (1,4705)              0.16415238    
    4706    (1,4706)              0.17793990    
    4707    (1,4707)              0.20760162    
    4708    (1,4708)              0.23345741    
    4709    (1,4709)              0.19848684    
    4710    (1,4710)              0.26077380    
    4711    (1,4711)              0.26375706    
    4712    (1,4712)              0.18244177    
    4713    (1,4713)              0.33115480    
    4714    (1,4714)              0.20251009    
    4715    (1,4715)              0.26074504    
    4716    (1,4716)              0.30240187    
    4717    (1,4717)              0.22629017    
    4718    (1,4718)              0.19254446    
    4719    (1,4719)              0.25126437    
    4720    (1,4720)              0.17071947    
    4721    (1,4721)              0.19115921    
    4722    (1,4722)              0.24405007    
    4723    (1,4723)              0.25421085    
    4724    (1,4724)              0.0000000     
    4725    (1,4725)              0.16919448    
    4726    (1,4726)              0.16832589    
    4727    (1,4727)              0.23648114    
    4728    (1,4728)              0.16030159    
    4729    (1,4729)              0.22112245    
    4730    (1,4730)              0.16932959    
    4731    (1,4731)              0.16085405    
    4732    (1,4732)              0.18452072    
    4733    (1,4733)              0.17774462    
    4734    (1,4734)              0.0000000     
    4735    (1,4735)              0.16860081    
    4736    (1,4736)              0.17079664    
    4737    (1,4737)              0.0000000     
    4738    (1,4738)              0.17278812    
    4739    (1,4739)              0.15589931    
    4740    (1,4740)              0.22247993    
    4741    (1,4741)              0.18896631    
    4742    (1,4742)              0.17681006    
    4743    (1,4743)              0.19644124    
    4744    (1,4744)              0.25206419    
    4745    (1,4745)              0.27544364    
    4746    (1,4746)              0.19051242    
    4747    (1,4747)              0.20331495    
    4748    (1,4748)              0.18794202    
    4749    (1,4749)              0.22597890    
    4750    (1,4750)              0.15051481    
    4751    (1,4751)              0.16666768    
    4752    (1,4752)              0.17476614    
    4753    (1,4753)              0.17984037    
    4754    (1,4754)              0.17571153    
    4755    (1,4755)              0.17246257    
    4756    (1,4756)              0.18207511    
    4757    (1,4757)              0.20503188    
    4758    (1,4758)              0.24787629    
    4759    (1,4759)              0.24961135    
    4760    (1,4760)              0.19853763    
    4761    (1,4761)              0.18543742    
    4762    (1,4762)              0.14147498    
    4763    (1,4763)              0.15045281    
    4764    (1,4764)              0.24113841    
    4765    (1,4765)              0.30447005    
    4766    (1,4766)              0.17794881    
    4767    (1,4767)              0.18375869    
    4768    (1,4768)              0.27765263    
 -----------------------------------------------




 HEAD WILL BE SAVED ON UNIT 1018 AT END OF TIME STEP    1, STRESS PERIOD    1


  VOLUME BUDGET FOR ENTIRE MODEL AT END OF TIME STEP    1, STRESS PERIOD   1
  ---------------------------------------------------------------------------------------------------

     CUMULATIVE VOLUME      L**3       RATES FOR THIS TIME STEP      L**3/T          PACKAGE NAME    
     ------------------                 ------------------------                     ----------------

           IN:                                      IN:
           ---                                      ---
                 WEL =           0.0000                   WEL =           0.0000     WELL_PACKAGE                     
                 RCH =         563.8145                   RCH =         563.8145     RCH                              
                 EVT =           0.0000                   EVT =           0.0000     EVT                              
                 CHD =          10.0019                   CHD =          10.0019     CHD                              

            TOTAL IN =         573.8164              TOTAL IN =         573.8164

          OUT:                                     OUT:
          ----                                     ----
                 WEL =          74.9709                   WEL =          74.9709     WELL_PACKAGE                     
                 RCH =           0.0000                   RCH =           0.0000     RCH                              
                 EVT =           5.6725                   EVT =           5.6725     EVT                              
                 CHD =         493.1733                   CHD =         493.1733     CHD                              

           TOTAL OUT =         573.8167             TOTAL OUT =         573.8167

            IN - OUT =      -3.0381E-04              IN - OUT =      -3.0381E-04

 PERCENT DISCREPANCY =          -0.00     PERCENT DISCREPANCY =          -0.00




         TIME SUMMARY AT END OF TIME STEP    1 IN STRESS PERIOD    1
                    SECONDS     MINUTES      HOURS       DAYS        YEARS
                    -----------------------------------------------------------
   TIME STEP LENGTH  1.0000     1.66667E-02 2.77778E-04 1.15741E-05 3.16881E-08
 STRESS PERIOD TIME  1.0000     1.66667E-02 2.77778E-04 1.15741E-05 3.16881E-08
         TOTAL TIME  1.0000     1.66667E-02 2.77778E-04 1.15741E-05 3.16881E-08


end timestep

