                                   MODFLOW 6
                U.S. GEOLOGICAL SURVEY MODULAR HYDROLOGIC MODEL
                            VERSION 6.6.0 12/20/2024

   MODFLOW 6 compiled Dec 31 2024 17:10:16 with Intel(R) Fortran Intel(R) 64
   Compiler Classic for applications running on Intel(R) 64, Version 2021.7.0
                             Build 20220726_000000

This software has been approved for release by the U.S. Geological 
Survey (USGS). Although the software has been subjected to rigorous 
review, the USGS reserves the right to update the software as needed 
pursuant to further analysis and review. No warranty, expressed or 
implied, is made by the USGS or the U.S. Government as to the 
functionality of the software and related material nor shall the 
fact of release constitute any such warranty. Furthermore, the 
software is released on condition that neither the USGS nor the U.S. 
Government shall be held liable for any damages resulting from its 
authorized or unauthorized use. Also refer to the USGS Water 
Resources Software User Rights Notice for complete use, copyright, 
and distribution information.


As a work of the United States Government, this USGS product is 
in the public domain within the United States. You can copy, 
modify, distribute, and perform the work, even for commercial 
purposes, all without asking permission. Additionally, USGS 
waives copyright and related rights in the work worldwide 
through CC0 1.0 Universal Public Domain Dedication 
(https://creativecommons.org/publicdomain/zero/1.0/).

The following GNU Lesser General Public License (LGPL) libraries
are used in this USGS product:

    SPARSKIT version 2.0
      ilut, luson, and qsplit 
      (https://www-users.cse.umn.edu/~saad/software/SPARSKIT/)

    RCM - Reverse Cuthill McKee Ordering
      (https://people.math.sc.edu/Burkardt/f_src/rcm/rcm.html)

    BLAS - Basic Linear Algebra Subprograms Level 1
      (https://people.math.sc.edu/Burkardt/f_src/blas1_d/blas1_d.html)

    SPARSEKIT - Sparse Matrix Utility Package
      amux, dperm, dvperm, rperm, and cperm
      (https://people.sc.fsu.edu/~jburkardt/f77_src/sparsekit/sparsekit.html)

The following BSD-3 License libraries are used in this USGS product:

    Modern Fortran DAG Library
      Copyright (c) 2018, Jacob Williams
      All rights reserved.
      (https://github.com/jacobwilliams/daglib)

MODFLOW 6 compiler options: /O2 /heap-arrays:0 /fpe:0 /traceback /nologo /fpp
/c /module:win64\mod_mf6\ /object:win64\obj_mf6\

System command used to initiate simulation:
mf6

MODFLOW was compiled using uniform precision.

Real Variables
  KIND: 8
  TINY (smallest non-zero value):    2.225074-308
  HUGE (largest value):    1.797693+308
  PRECISION: 15
  SIZE IN BITS: 64

Integer Variables
  KIND: 4
  HUGE (largest value): 2147483647
  SIZE IN BITS: 32

Long Integer Variables
  KIND: 8
  HUGE (largest value): 9223372036854775807
  SIZE IN BITS: 64

Logical Variables
  KIND: 4
  SIZE IN BITS: 32
 

 OPENED mfsim.nam
 FILE TYPE:NAM6               UNIT 1001   STATUS:OLD                 
 FORMAT:FORMATTED              ACCESS:SEQUENTIAL          
 ACTION:READ                

 # File generated by Flopy version 3.9.1 on 01/24/2026 at 08:52:30.

 OPENED DISU_model.tdis
 FILE TYPE:TDIS6              UNIT 1002   STATUS:OLD                 
 FORMAT:FORMATTED              ACCESS:SEQUENTIAL          
 ACTION:READ                

 # File generated by Flopy version 3.9.1 on 01/24/2026 at 08:52:30.

 OPENED DISU_model.nam
 FILE TYPE:GWF6               UNIT 1003   STATUS:OLD                 
 FORMAT:FORMATTED              ACCESS:SEQUENTIAL          
 ACTION:READ                

 # File generated by Flopy version 3.9.1 on 01/24/2026 at 08:52:30.

 OPENED DISU_model.disu
 FILE TYPE:DISU6              UNIT 1004   STATUS:OLD                 
 FORMAT:FORMATTED              ACCESS:SEQUENTIAL          
 ACTION:READ                

 # File generated by Flopy version 3.9.1 on 01/24/2026 at 08:52:30.

 OPENED DISU_model.npf
 FILE TYPE:NPF6               UNIT 1005   STATUS:OLD                 
 FORMAT:FORMATTED              ACCESS:SEQUENTIAL          
 ACTION:READ                

 # File generated by Flopy version 3.9.1 on 01/24/2026 at 08:52:44.

 OPENED DISU_model.ic
 FILE TYPE:IC6                UNIT 1006   STATUS:OLD                 
 FORMAT:FORMATTED              ACCESS:SEQUENTIAL          
 ACTION:READ                

 # File generated by Flopy version 3.9.1 on 01/24/2026 at 08:52:43.

 OPENED DISU_model.oc
 FILE TYPE:OC6       UNIT 1007   STATUS:OLD                 
 FORMAT:FORMATTED              ACCESS:SEQUENTIAL          
 ACTION:READ                


 OPENED DISU_model.wel
 FILE TYPE:WEL6               UNIT 1008   STATUS:OLD                 
 FORMAT:FORMATTED              ACCESS:SEQUENTIAL          
 ACTION:READ                

 # File generated by Flopy version 3.9.1 on 01/24/2026 at 08:52:44.

 OPENED quadtree_caseD_1.rch
 FILE TYPE:RCH6               UNIT 1010   STATUS:OLD                 
 FORMAT:FORMATTED              ACCESS:SEQUENTIAL          
 ACTION:READ                

 # File generated by Flopy version 3.9.1 on 01/24/2026 at 08:52:44.

 OPENED DISU_model.evt
 FILE TYPE:EVT6               UNIT 1012   STATUS:OLD                 
 FORMAT:FORMATTED              ACCESS:SEQUENTIAL          
 ACTION:READ                

 # File generated by Flopy version 3.9.1 on 01/24/2026 at 08:52:44.

 OPENED DISU_model.chd
 FILE TYPE:CHD6               UNIT 1013   STATUS:OLD                 
 FORMAT:FORMATTED              ACCESS:SEQUENTIAL          
 ACTION:READ                

 # File generated by Flopy version 3.9.1 on 01/24/2026 at 08:52:44.

 READING SIMULATION OPTIONS
    MAXIMUM NUMBER OF ERRORS THAT WILL BE STORED IS 1000
 END OF SIMULATION OPTIONS

 READING SIMULATION TIMING

 TDIS -- TEMPORAL DISCRETIZATION PACKAGE,
 VERSION 1 : 11/13/2014 - INPUT READ FROM MEMPATH: __INPUT__/SIM/TDIS                                
 PROCESSING TDIS OPTIONS
    SIMULATION TIME UNIT IS SECONDS
 END OF TDIS OPTIONS
 PROCESSING TDIS DIMENSIONS
    1 STRESS PERIOD(S) IN SIMULATION
 END OF TDIS DIMENSIONS
 PROCESSING TDIS PERIODDATA


 STRESS PERIOD     LENGTH       TIME STEPS     MULTIPLIER FOR DELT
 ----------------------------------------------------------------------------
        1         1.000000          1                    1.000
 END OF TDIS PERIODDATA
 END OF SIMULATION TIMING

 READING SIMULATION MODELS
    GWF6 model 1 will be created
 END OF SIMULATION MODELS

 READING SIMULATION EXCHANGES
 END OF SIMULATION EXCHANGES

 READING SOLUTIONGROUP

 Creating solution: SLN_1           

 OPENED DISU_model.ims
 FILE TYPE:IMS   UNIT 1015   STATUS:OLD                 
 FORMAT:FORMATTED              ACCESS:SEQUENTIAL          
 ACTION:READ                

 END OF SOLUTIONGROUP

PROCESSING MODEL CONNECTIONS

 IMS -- ITERATIVE MODEL SOLUTION PACKAGE, VERSION 6, 4/28/2017
         INPUT READ FROM UNIT 1015
 # File generated by Flopy version 3.9.1 on 01/24/2026 at 08:52:30.

 PROCESSING IMS OPTIONS
 COMPLEX OPTION:
 DEFAULT SOLVER INPUT VALUES REFLECT STRONGLY NONLINEAR MODEL
 END OF IMS OPTIONS

 PROCESSING IMS NONLINEAR
 END OF IMS NONLINEAR DATA
 **UNDER-RELAXATION WILL BE USED***
 

 PROCESSING LINEAR DATA
 END OF LINEAR DATA
 ***IMS LINEAR SOLVER WILL BE USED***

 IMSLINEAR -- UNSTRUCTURED LINEAR SOLUTION PACKAGE, VERSION 8, 04/28/2017
 An asymmetric matrix will be solved

 OUTER ITERATION CONVERGENCE CRITERION    (DVCLOSE) =    0.100000E-02
 MAXIMUM NUMBER OF OUTER ITERATIONS        (MXITER) = 300
 SOLVER PRINTOUT INDEX                     (IPRIMS) = 1
 NONLINEAR ITERATION METHOD            (NONLINMETH) = 3
 LINEAR SOLUTION METHOD                   (LINMETH) = 1
 UNDER-RELAXATION WEIGHT REDUCTION FACTOR   (THETA) =    0.800000E+00
 UNDER-RELAXATION WEIGHT INCREASE INCREMENT (KAPPA) =    0.100000E-03
 UNDER-RELAXATION PREVIOUS HISTORY FACTOR   (GAMMA) =    0.000000E+00
 UNDER-RELAXATION MOMENTUM TERM         (AMOMENTUM) =    0.000000E+00
 MAXIMUM NUMBER OF BACKTRACKS            (NUMTRACK) = 20
 BACKTRACKING TOLERANCE FACTOR               (BTOL) =    0.105000E+01
 BACKTRACKING REDUCTION FACTOR             (BREDUC) =    0.100000E+00
 BACKTRACKING RESIDUAL LIMIT              (RES_LIM) =    0.200000E-02

       SOLUTION BY THE BICONJUGATE-GRADIENT STABILIZED METHOD
 ------------------------------------------------------------------
 MAXIMUM OF 300 CALLS OF SOLUTION ROUTINE
 MAXIMUM OF 1200 INTERNAL ITERATIONS PER CALL TO SOLUTION ROUTINE
 LINEAR ACCELERATION METHOD            = BCGS      
 MATRIX PRECONDITIONING TYPE           = MOD. INCOMPLETE LUT 
 MATRIX SCALING APPROACH               = NO SCALING          
 MATRIX REORDERING APPROACH            = ORIGINAL ORDERING        
 NUMBER OF ORTHOGONALIZATIONS          = 2
 HEAD CHANGE CRITERION FOR CLOSURE     =    0.10000E-05
 RESIDUAL CHANGE CRITERION FOR CLOSURE =    0.10000E+00
 RESIDUAL CONVERGENCE OPTION           = 0
 RESIDUAL CONVERGENCE NORM             = INFINITY NORM   
 RELAXATION FACTOR                     =    0.92000E+00
 NUMBER OF LEVELS                      =              5
 DROP TOLERANCE                        =    0.10000E-03


 
    Solving:  Stress period:     1    Time step:     1
 
1
 STRESS PERIOD NO. 1, LENGTH =   1.000000    
 ------------------------------------------
 NUMBER OF TIME STEPS = 1
 MULTIPLIER FOR DELT =     1.000
 INITIAL TIME STEP SIZE =   1.000000    

 SLN_1 OUTER ITERATION SUMMARY
 ----------------------------------------------------------------------------------------------------------------------------------------------------------------
                                OUTER      INNER  BACKTRACK  BACKTRACK        INCOMING        OUTGOING                    STEP   MAXIMUM CHANGE MODEL-(CELLID) OR
 OUTER ITERATION STEP       ITERATION  ITERATION       FLAG ITERATIONS        RESIDUAL        RESIDUAL  MAXIMUM CHANGE SUCCESS             MODEL-PACKAGE-(NUMBER)
 ----------------------------------------------------------------------------------------------------------------------------------------------------------------
 Backtracking                       1                     0          0       1874658.2       1874658.2                       *                                   
 Model                              1        157                                                             252.45348                              1_GWF-(69705)
 Backtracking                       2                     0          0       1.1335442       1.1335442                       *                                   
 Model                              2         94                                                            -1.8043982                              1_GWF-(84301)
 Backtracking                       3                     1          3       47.035652       1.1332495                                                           
 Model                              3         88                                                            -1.8025916                              1_GWF-(84301)
 Backtracking                       4                     1          3       46.985924       1.1349006                                                           
 Model                              4        104                                                            -1.8014989                              1_GWF-(84301)
 Backtracking                       5                     1          3       46.866221       1.1384685                                                           
 Model                              5         90                                                            -1.7999443                              1_GWF-(84301)
 Backtracking                       6                     1          3       46.810410       1.1439252                                                           
 Model                              6        100                                                            -1.7986580                              1_GWF-(84301)
 Backtracking                       7                     1          3       46.743619       1.1512293                                                           
 Model                              7         84                                                            -1.7970507                              1_GWF-(84301)
 Backtracking                       8                     1          3       46.687831       1.1603348                                                           
 Model                              8         90                                                            -1.7955857                              1_GWF-(84301)
 Backtracking                       9                     1          3       46.624250       1.1711853                                                           
 Model                              9         98                                                            -1.7942653                              1_GWF-(84301)
 Backtracking                      10                     1          3       46.562597       1.1837207                                                           
 Model                             10         93                                                            -1.7927545                              1_GWF-(84301)
 Backtracking                      11                     1          3       46.503136       1.1978763                                                           
 Model                             11         96                                                            -1.7913786                              1_GWF-(84301)
 Backtracking                      12                     1          3       46.441551       1.2135825                                                           
 Model                             12         93                                                            -1.7899299                              1_GWF-(84301)
 Backtracking                      13                     1          3       46.379955       1.2307680                                                           
 Model                             13         82                                                            -1.7881883                              1_GWF-(84301)
 Backtracking                      14                     1          3       46.316172       1.2493590                                                           
 Model                             14         92                                                            -1.7868963                              1_GWF-(84301)
 Backtracking                      15                     1          3       46.262863       1.2692868                                                           
 Model                             15        101                                                            -1.7856055                              1_GWF-(84301)
 Backtracking                      16                     1          3       46.200190       1.2904742                                                           
 Model                             16         89                                                            -1.7841555                              1_GWF-(84301)
 Backtracking                      17                     1          3       46.140323       1.3128506                                                           
 Model                             17         86                                                            -1.7828157                              1_GWF-(84301)
 Backtracking                      18                     1          3       46.079598       1.3363451                                                           
 Model                             18         97                                                            -1.7813379                              1_GWF-(84301)
 Backtracking                      19                     1          3       46.018973       1.3608892                                                           
 Model                             19         95                                                            -1.7799198                              1_GWF-(84301)
 Backtracking                      20                     1          3       45.958555       1.3864169                                                           
 Model                             20         87                                                            -1.7785939                              1_GWF-(84301)
 Backtracking                      21                     1          3       45.901296       1.4128669                                                           
 Model                             21         95                                                            -1.7771043                              1_GWF-(84301)
 Backtracking                      22                     1          3       45.838399       1.4401752                                                           
 Model                             22         91                                                            -1.7756228                              1_GWF-(84301)
 Backtracking                      23                     1          3       45.778990       1.4682862                                                           
 Model                             23         91                                                            -1.7741830                              1_GWF-(84301)
 Backtracking                      24                     1          3       45.719384       1.4971455                                                           
 Model                             24         77                                                            -1.7720010                              1_GWF-(84301)
 Backtracking                      25                     1          3       45.657003       1.5266993                                                           
 Model                             25         93                                                            -1.7713967                              1_GWF-(84301)
 Backtracking                      26                     1          3       45.599425       1.5569025                                                           
 Model                             26         92                                                            -1.7700251                              1_GWF-(84301)
 Backtracking                      27                     1          3       45.541598       1.5877094                                                           
 Model                             27         94                                                            -1.7685597                              1_GWF-(84301)
 Backtracking                      28                     1          3       45.480447       1.6190746                                                           
 Model                             28         94                                                            -1.7671556                              1_GWF-(84301)
 Backtracking                      29                     1          3       45.420973       1.6509591                                                           
 Model                             29         94                                                            -1.7657308                              1_GWF-(84301)
 Backtracking                      30                     1          3       45.361664       1.6833255                                                           
 Model                             30         86                                                            -1.7641322                              1_GWF-(84301)
 Backtracking                      31                     1          3       45.299839       1.7161367                                                           
 Model                             31         94                                                            -1.7628726                              1_GWF-(84301)
 Backtracking                      32                     1          3       45.243453       1.7493638                                                           
 Model                             32         89                                                            -1.7614688                              1_GWF-(84301)
 Backtracking                      33                     1          3       45.184135       1.7829741                                                           
 Model                             33         91                                                            -1.7601013                              1_GWF-(84301)
 Backtracking                      34                     1          3       45.125274       1.8169392                                                           
 Model                             34        102                                                            -1.7586431                              1_GWF-(84301)
 Backtracking                      35                     1          3       45.065080       1.8512313                                                           
 Model                             35        100                                                            -1.7571840                              1_GWF-(84301)
 Backtracking                      36                     1          3       45.006503       1.8858268                                                           
 Model                             36        115                                                            -1.7557669                              1_GWF-(84301)
 Backtracking                      37                     1          3       44.947536       1.9207021                                                           
 Model                             37        104                                                            -1.7543623                              1_GWF-(84301)
 Backtracking                      38                     1          3       44.888478       1.9558354                                                           
 Model                             38        102                                                            -1.7530051                              1_GWF-(84301)
 Backtracking                      39                     1          3       44.829049       1.9912061                                                           
 Model                             39         95                                                            -1.7516119                              1_GWF-(84301)
 Backtracking                      40                     1          3       44.767907       2.0267940                                                           
 Model                             40        103                                                            -1.7501540                              1_GWF-(84301)
 Backtracking                      41                     1          3       44.711792       2.0625854                                                           
 Model                             41        103                                                            -1.7487568                              1_GWF-(84301)
 Backtracking                      42                     1          3       44.652975       2.0985618                                                           
 Model                             42        100                                                            -1.7473306                              1_GWF-(84301)
 Backtracking                      43                     1          3       44.594194       2.1347077                                                           
 Model                             43         92                                                            -1.7459214                              1_GWF-(84301)
 Backtracking                      44                     1          3       44.534040       2.1710076                                                           
 Model                             44        104                                                            -1.7445580                              1_GWF-(84301)
 Backtracking                      45                     1          3       44.477080       2.2074507                                                           
 Model                             45         96                                                            -1.7431613                              1_GWF-(84301)
 Backtracking                      46                     1          3       44.417304       2.2440221                                                           
 Model                             46         91                                                            -1.7416350                              1_GWF-(84301)
 Backtracking                      47                     1          3       44.360516       2.2807125                                                           
 Model                             47        107                                                            -1.7403756                              1_GWF-(84301)
 Backtracking                      48                     1          3       44.301704       2.3175091                                                           
 Model                             48        106                                                            -1.7389725                              1_GWF-(84301)
 Backtracking                      49                     1          3       44.243418       2.3544021                                                           
 Model                             49        109                                                            -1.7375466                              1_GWF-(84301)
 Backtracking                      50                     1          3       44.185384       2.3913819                                                           
 Model                             50        107                                                            -1.7361803                              1_GWF-(84301)
 Backtracking                      51                     1          3       44.127009       2.4284393                                                           
 Model                             51         88                                                            -1.7340093                              1_GWF-(84301)
 Backtracking                      52                     1          3       44.076987       2.4655728                                                           
 Model                             52        101                                                            -1.7333701                              1_GWF-(84301)
 Backtracking                      53                     1          3       44.010397       2.5027602                                                           
 Model                             53        103                                                            -1.7319654                              1_GWF-(84301)
 Backtracking                      54                     1          3       43.953033       2.5400018                                                           
 Model                             54         94                                                            -1.7305494                              1_GWF-(84301)
 Backtracking                      55                     1          3       43.894569       2.5772897                                                           
 Model                             55         90                                                            -1.7288134                              1_GWF-(84301)
 Backtracking                      56                     1          3       43.840053       2.6146208                                                           
 Model                             56        100                                                            -1.7275840                              1_GWF-(84301)
 Backtracking                      57                     1          3       43.781292       2.6519848                                                           
 Model                             57         91                                                            -1.7262845                              1_GWF-(84301)
 Backtracking                      58                     1          3       43.721100       2.6893748                                                           
 Model                             58        104                                                            -1.7249872                              1_GWF-(84301)
 Backtracking                      59                     1          3       43.664105       2.7267878                                                           
 Model                             59         92                                                            -1.7235477                              1_GWF-(84301)
 Backtracking                      60                     1          3       43.605615       2.7642174                                                           
 Model                             60         98                                                            -1.7222193                              1_GWF-(84301)
 Backtracking                      61                     1          3       43.548412       2.8016597                                                           
 Model                             61         81                                                            -1.7205017                              1_GWF-(84301)
 Backtracking                      62                     1          3       43.489635       2.8391087                                                           
 Model                             62         96                                                            -1.7194657                              1_GWF-(84301)
 Backtracking                      63                     1          3       43.433553       2.8765624                                                           
 Model                             63         95                                                            -1.7178395                              1_GWF-(84301)
 Backtracking                      64                     1          3       43.378566       2.9140176                                                           
 Model                             64         91                                                            -1.7166823                              1_GWF-(84301)
 Backtracking                      65                     1          3       43.317875       2.9514652                                                           
 Model                             65         83                                                            -1.7150727                              1_GWF-(84301)
 Backtracking                      66                     1          3       43.261211       2.9889051                                                           
 Model                             66         98                                                            -1.7138774                              1_GWF-(84301)
 Backtracking                      67                     1          3       43.204771       3.0263339                                                           
 Model                             67         97                                                            -1.7125308                              1_GWF-(84301)
 Backtracking                      68                     1          3       43.147415       3.0637476                                                           
 Model                             68        106                                                            -1.7111247                              1_GWF-(84301)
 Backtracking                      69                     1          3       43.090723       3.1011435                                                           
 Model                             69         95                                                            -1.7097483                              1_GWF-(84301)
 Backtracking                      70                     1          3       43.033900       3.1385186                                                           
 Model                             70         85                                                            -1.7083511                              1_GWF-(84301)
 Backtracking                      71                     1          3       42.974323       3.1758673                                                           
 Model                             71        103                                                            -1.7070353                              1_GWF-(84301)
 Backtracking                      72                     1          3       42.919497       3.2131914                                                           
 Model                             72        102                                                            -1.7056526                              1_GWF-(84301)
 Backtracking                      73                     1          3       42.862583       3.2504865                                                           
 Model                             73        101                                                            -1.7042462                              1_GWF-(84301)
 Backtracking                      74                     1          3       42.805942       3.2877503                                                           
 Model                             74         99                                                            -1.7028605                              1_GWF-(84301)
 Backtracking                      75                     1          3       42.749379       3.3249805                                                           
 Model                             75        101                                                            -1.7014322                              1_GWF-(84301)
 Backtracking                      76                     1          3       42.693256       3.3621755                                                           
 Model                             76         99                                                            -1.7001454                              1_GWF-(84301)
 Backtracking                      77                     1          3       42.635802       3.3993318                                                           
 Model                             77         90                                                            -1.6988021                              1_GWF-(84301)
 Backtracking                      78                     1          3       42.577803       3.4364470                                                           
 Model                             78        100                                                            -1.6973903                              1_GWF-(84301)
 Backtracking                      79                     1          3       42.522983       3.4735221                                                           
 Model                             79         89                                                            -1.6959780                              1_GWF-(84301)
 Backtracking                      80                     1          3       42.466413       3.5105537                                                           
 Model                             80        100                                                            -1.6946548                              1_GWF-(84301)
 Backtracking                      81                     1          3       42.409995       3.5475402                                                           
 Model                             81         97                                                            -1.6931586                              1_GWF-(84301)
 Backtracking                      82                     1          3       42.354999       3.5844814                                                           
 Model                             82         99                                                            -1.6918635                              1_GWF-(84301)
 Backtracking                      83                     1          3       42.298028       3.6213737                                                           
 Model                             83         91                                                            -1.6905089                              1_GWF-(84301)
 Backtracking                      84                     1          3       42.241431       3.6582161                                                           
 Model                             84        110                                                            -1.6890956                              1_GWF-(84301)
 Backtracking                      85                     1          3       42.186037       3.6950083                                                           
 Model                             85         99                                                            -1.6878327                              1_GWF-(84301)
 Backtracking                      86                     1          3       42.129087       3.7317474                                                           
 Model                             86        101                                                            -1.6864530                              1_GWF-(84301)
 Backtracking                      87                     1          3       42.073153       3.7684331                                                           
 Model                             87         84                                                            -1.6849304                              1_GWF-(84301)
 Backtracking                      88                     1          3       42.016093       3.8050631                                                           
 Model                             88        103                                                            -1.6837256                              1_GWF-(84301)
 Backtracking                      89                     1          3       41.961314       3.8416385                                                           
 Model                             89         92                                                            -1.6823917                              1_GWF-(84301)
 Backtracking                      90                     1          3       41.904827       3.8781564                                                           
 Model                             90        109                                                            -1.6810197                              1_GWF-(84301)
 Backtracking                      91                     1          3       41.849663       3.9146170                                                           
 Model                             91         88                                                            -1.6795105                              1_GWF-(84301)
 Backtracking                      92                     1          3       41.794471       3.9510194                                                           
 Model                             92        102                                                            -1.6782895                              1_GWF-(84301)
 Backtracking                      93                     1          3       41.738335       3.9873615                                                           
 Model                             93         95                                                            -1.6769128                              1_GWF-(84301)
 Backtracking                      94                     1          3       41.682805       4.0236431                                                           
 Model                             94         83                                                            -1.6753993                              1_GWF-(84301)
 Backtracking                      95                     1          3       41.626621       4.0598625                                                           
 Model                             95         90                                                            -1.6741441                              1_GWF-(84301)
 Backtracking                      96                     1          3       41.572416       4.0960209                                                           
 Model                             96        113                                                            -1.6728068                              1_GWF-(84301)
 Backtracking                      97                     1          3       41.516870       4.1321162                                                           
 Model                             97         95                                                            -1.6714793                              1_GWF-(84301)
 Backtracking                      98                     1          3       41.461201       4.1681474                                                           
 Model                             98         87                                                            -1.6701004                              1_GWF-(84301)
 Backtracking                      99                     1          3       41.404524       4.2041128                                                           
 Model                             99        101                                                            -1.6687709                              1_GWF-(84301)
 Backtracking                     100                     1          3       41.350713       4.2400145                                                           
 Model                            100         92                                                            -1.6674981                              1_GWF-(84301)
 Backtracking                     101                     1          3       41.294544       4.2758495                                                           
 Model                            101         90                                                            -1.6660715                              1_GWF-(84301)
 Backtracking                     102                     1          3       41.240327       4.3116189                                                           
 Model                            102        115                                                            -1.6647644                              1_GWF-(84301)
 Backtracking                     103                     1          3       41.184958       4.3473211                                                           
 Model                            103         91                                                            -1.6632933                              1_GWF-(84301)
 Backtracking                     104                     1          3       41.131057       4.3829569                                                           
 Model                            104         91                                                            -1.6620395                              1_GWF-(84301)
 Backtracking                     105                     1          3       41.075138       4.4185237                                                           
 Model                            105         96                                                            -1.6606783                              1_GWF-(84301)
 Backtracking                     106                     1          3       41.020487       4.4540223                                                           
 Model                            106         96                                                            -1.6592652                              1_GWF-(84301)
 Backtracking                     107                     1          3       40.966320       4.4894524                                                           
 Model                            107        114                                                            -1.6579622                              1_GWF-(84301)
 Backtracking                     108                     1          3       40.910999       4.5248126                                                           
 Model                            108         78                                                            -1.6563715                              1_GWF-(84301)
 Backtracking                     109                     1          3       40.845266       4.5600921                                                           
 Model                            109         94                                                            -1.6552468                              1_GWF-(84301)
 Backtracking                     110                     1          3       40.802023       4.5953124                                                           
 Model                            110         84                                                            -1.6537068                              1_GWF-(84301)
 Backtracking                     111                     1          3       40.747910       4.6304624                                                           
 Model                            111         86                                                            -1.6526433                              1_GWF-(84301)
 Backtracking                     112                     1          3       40.691245       4.6655393                                                           
 Model                            112        110                                                            -1.6513141                              1_GWF-(84301)
 Backtracking                     113                     1          3       40.637367       4.7005453                                                           
 Model                            113         98                                                            -1.6498346                              1_GWF-(84301)
 Backtracking                     114                     1          3       40.584489       4.7354811                                                           
 Model                            114         95                                                            -1.6485209                              1_GWF-(84301)
 Backtracking                     115                     1          3       40.529838       4.7703444                                                           
 Model                            115         92                                                            -1.6473264                              1_GWF-(84301)
 Backtracking                     116                     1          3       40.473935       4.8051338                                                           
 Model                            116         91                                                            -1.6458979                              1_GWF-(84301)
 Backtracking                     117                     1          3       40.420699       4.8398514                                                           
 Model                            117        100                                                            -1.6445024                              1_GWF-(84301)
 Backtracking                     118                     1          3       40.367173       4.8744966                                                           
 Model                            118         93                                                            -1.6432004                              1_GWF-(84301)
 Backtracking                     119                     1          3       40.312686       4.9090682                                                           
 Model                            119        113                                                            -1.6419691                              1_GWF-(84301)
 Backtracking                     120                     1          3       40.257418       4.9435651                                                           
 Model                            120         93                                                            -1.6406021                              1_GWF-(84301)
 Backtracking                     121                     1          3       40.203881       4.9779887                                                           
 Model                            121         84                                                            -1.6394756                              1_GWF-(84301)
 Backtracking                     122                     1          3       40.146441       5.0123349                                                           
 Model                            122        107                                                            -1.6379675                              1_GWF-(84301)
 Backtracking                     123                     1          3       40.095362       5.0466096                                                           
 Model                            123         89                                                            -1.6365257                              1_GWF-(84301)
 Backtracking                     124                     1          3       40.043063       5.0808114                                                           
 Model                            124         88                                                            -1.6352744                              1_GWF-(84301)
 Backtracking                     125                     1          3       39.988183       5.1149374                                                           
 Model                            125         91                                                            -1.6338493                              1_GWF-(84301)
 Backtracking                     126                     1          3       39.935662       5.1489899                                                           
 Model                            126         83                                                            -1.6325769                              1_GWF-(84301)
 Backtracking                     127                     1          3       39.879778       5.1829652                                                           
 Model                            127         89                                                            -1.6313050                              1_GWF-(84301)
 Backtracking                     128                     1          3       39.827277       5.2168664                                                           
 Model                            128         90                                                            -1.6298604                              1_GWF-(84301)
 Backtracking                     129                     1          3       39.774937       5.2506935                                                           
 Model                            129         91                                                            -1.6286923                              1_GWF-(84301)
 Backtracking                     130                     1          3       39.719803       5.2844435                                                           
 Model                            130         99                                                            -1.6273108                              1_GWF-(84301)
 Backtracking                     131                     1          3       39.666747       5.3181183                                                           
 Model                            131         98                                                            -1.6259965                              1_GWF-(84301)
 Backtracking                     132                     1          3       39.613409       5.3517174                                                           
 Model                            132         97                                                            -1.6246614                              1_GWF-(84301)
 Backtracking                     133                     1          3       39.560114       5.3852406                                                           
 Model                            133        110                                                            -1.6233761                              1_GWF-(84301)
 Backtracking                     134                     1          3       39.506122       5.4186872                                                           
 Model                            134         94                                                            -1.6220206                              1_GWF-(84301)
 Backtracking                     135                     1          3       39.453495       5.4520583                                                           
 Model                            135         94                                                            -1.6205368                              1_GWF-(84301)
 Backtracking                     136                     1          3       39.402073       5.4853549                                                           
 Model                            136         94                                                            -1.6193280                              1_GWF-(84301)
 Backtracking                     137                     1          3       39.347789       5.5185740                                                           
 Model                            137         95                                                            -1.6180090                              1_GWF-(84301)
 Backtracking                     138                     1          3       39.294797       5.5517168                                                           
 Model                            138         92                                                            -1.6167867                              1_GWF-(84301)
 Backtracking                     139                     1          3       39.240988       5.5847823                                                           
 Model                            139         88                                                            -1.6153855                              1_GWF-(84301)
 Backtracking                     140                     1          3       39.188852       5.6177721                                                           
 Model                            140         91                                                            -1.6141766                              1_GWF-(84301)
 Backtracking                     141                     1          3       39.134987       5.6506843                                                           
 Model                            141        110                                                            -1.6128442                              1_GWF-(84301)
 Backtracking                     142                     1          3       39.081745       5.6835195                                                           
 Model                            142         84                                                            -1.6115489                              1_GWF-(84301)
 Backtracking                     143                     1          3       39.027943       5.7162769                                                           
 Model                            143        114                                                            -1.6102088                              1_GWF-(84301)
 Backtracking                     144                     1          3       38.976289       5.7489585                                                           
 Model                            144         83                                                            -1.6088787                              1_GWF-(84301)
 Backtracking                     145                     1          3       38.923101       5.7815628                                                           
 Model                            145         94                                                            -1.6075063                              1_GWF-(84301)
 Backtracking                     146                     1          3       38.872238       5.8140919                                                           
 Model                            146         85                                                            -1.6061068                              1_GWF-(84301)
 Backtracking                     147                     1          3       38.820391       5.8465447                                                           
 Model                            147        118                                                            -1.6049719                              1_GWF-(84301)
 Backtracking                     148                     1          3       38.765980       5.8789188                                                           
 Model                            148         82                                                            -1.6034764                              1_GWF-(84301)
 Backtracking                     149                     1          3       38.714802       5.9112170                                                           
 Model                            149         80                                                            -1.6022951                              1_GWF-(84301)
 Backtracking                     150                     1          3       38.660880       5.9434368                                                           
 Model                            150         86                                                            -1.6009687                              1_GWF-(84301)
 Backtracking                     151                     1          3       38.610488       5.9755814                                                           
 Model                            151        124                                                            -1.5997539                              1_GWF-(84301)
 Backtracking                     152                     1          3       38.556510       6.0076473                                                           
 Model                            152         88                                                            -1.5984264                              1_GWF-(84301)
 Backtracking                     153                     1          3       38.505204       6.0396370                                                           
 Model                            153         89                                                            -1.5970475                              1_GWF-(84301)
 Backtracking                     154                     1          3       38.453700       6.0715503                                                           
 Model                            154        110                                                            -1.5958614                              1_GWF-(84301)
 Backtracking                     155                     1          3       38.399748       6.1033846                                                           
 Model                            155         93                                                            -1.5945147                              1_GWF-(84301)
 Backtracking                     156                     1          3       38.348584       6.1351428                                                           
 Model                            156         83                                                            -1.5929804                              1_GWF-(84301)
 Backtracking                     157                     1          3       38.298165       6.1668254                                                           
 Model                            157         90                                                            -1.5919233                              1_GWF-(84301)
 Backtracking                     158                     1          3       38.244819       6.1984295                                                           
 Model                            158         86                                                            -1.5906046                              1_GWF-(84301)
 Backtracking                     159                     1          3       38.192321       6.2299560                                                           
 Model                            159        108                                                            -1.5893779                              1_GWF-(84301)
 Backtracking                     160                     1          3       38.139495       6.2614044                                                           
 Model                            160        101                                                            -1.5881039                              1_GWF-(84301)
 Backtracking                     161                     1          3       38.087427       6.2927754                                                           
 Model                            161        114                                                            -1.5867429                              1_GWF-(84301)
 Backtracking                     162                     1          2       38.036675       6.6059567                                                           
 Model                            162         93                                                            -1.5738178                              1_GWF-(84301)
 Backtracking                     163                     1          2       37.706176       6.9131957                                                           
 Model                            163         95                                                            -1.5607950                              1_GWF-(84301)
 Backtracking                     164                     1          2       37.379734       7.2145148                                                           
 Model                            164         85                                                            -1.5481166                              1_GWF-(84301)
 Backtracking                     165                     1          2       37.054155       7.5099194                                                           
 Model                            165        114                                                            -1.5356005                              1_GWF-(84301)
 Backtracking                     166                     1          2       36.729930       7.7994323                                                           
 Model                            166        112                                                            -1.5230729                              1_GWF-(84301)
 Backtracking                     167                     1          2       36.410270       8.0831157                                                           
 Model                            167        107                                                            -1.5104863                              1_GWF-(84301)
 Backtracking                     168                     1          2       36.094589       8.3610333                                                           
 Model                            168         95                                                            -1.4981872                              1_GWF-(84301)
 Backtracking                     169                     1          2       35.781003       8.6332348                                                           
 Model                            169         87                                                            -1.4860024                              1_GWF-(84301)
 Backtracking                     170                     1          2       35.466789       8.8997470                                                           
 Model                            170        110                                                            -1.4739271                              1_GWF-(84301)
 Backtracking                     171                     1          2       35.158625       9.1606666                                                           
 Model                            171         96                                                            -1.4618604                              1_GWF-(84301)
 Backtracking                     172                     1          2       34.853668       9.4160640                                                           
 Model                            172         94                                                            -1.4499128                              1_GWF-(84301)
 Backtracking                     173                     1          2       34.550166       9.6659941                                                           
 Model                            173         86                                                            -1.4378652                              1_GWF-(84301)
 Backtracking                     174                     1          2       34.251109       9.9105426                                                           
 Model                            174         84                                                            -1.4263288                              1_GWF-(84301)
 Backtracking                     175                     1          2       33.950635       10.149739                                                           
 Model                            175        104                                                            -1.4146895                              1_GWF-(84301)
 Backtracking                     176                     1          2       33.653120       10.383656                                                           
 Model                            176        109                                                            -1.4031164                              1_GWF-(84301)
 Backtracking                     177                     1          2       33.360128       10.612382                                                           
 Model                            177         87                                                            -1.3916674                              1_GWF-(84301)
 Backtracking                     178                     1          2       33.070372       10.835996                                                           
 Model                            178         86                                                            -1.3803053                              1_GWF-(84301)
 Backtracking                     179                     1          2       32.782049       11.054556                                                           
 Model                            179         90                                                            -1.3685691                              1_GWF-(84301)
 Backtracking                     180                     1          2       32.500514       11.268172                                                           
 Model                            180         93                                                            -1.3577394                              1_GWF-(84301)
 Backtracking                     181                     1          2       32.213582       11.476839                                                           
 Model                            181         95                                                            -1.3466957                              1_GWF-(84301)
 Backtracking                     182                     1          2       31.931984       11.680652                                                           
 Model                            182        131                                                            -1.3356856                              1_GWF-(84301)
 Backtracking                     183                     1          2       31.652153       11.879674                                                           
 Model                            183         96                                                            -1.3247412                              1_GWF-(84301)
 Backtracking                     184                     1          2       31.377415       12.074000                                                           
 Model                            184         97                                                            -1.3138441                              1_GWF-(84301)
 Backtracking                     185                     1          2       31.104549       12.263693                                                           
 Model                            185        100                                                            -1.3031862                              1_GWF-(84301)
 Backtracking                     186                     1          2       30.831780       12.448796                                                           
 Model                            186        113                                                            -1.2924830                              1_GWF-(84301)
 Backtracking                     187                     1          2       30.561599       12.629380                                                           
 Model                            187        110                                                            -1.2819212                              1_GWF-(84301)
 Backtracking                     188                     1          2       30.294692       12.805518                                                           
 Model                            188         79                                                            -1.2709526                              1_GWF-(84301)
 Backtracking                     189                     1          2       30.036375       12.977339                                                           
 Model                            189         87                                                            -1.2608188                              1_GWF-(84301)
 Backtracking                     190                     1          2       29.771206       13.144817                                                           
 Model                            190         88                                                            -1.2507795                              1_GWF-(84301)
 Backtracking                     191                     1          2       29.508527       13.308018                                                           
 Model                            191         88                                                            -1.2404510                              1_GWF-(84301)
 Backtracking                     192                     1          2       29.251558       13.467039                                                           
 Model                            192         87                                                            -1.2303033                              1_GWF-(84301)
 Backtracking                     193                     1          2       28.995893       13.621935                                                           
 Model                            193         94                                                            -1.2202156                              1_GWF-(84301)
 Backtracking                     194                     1          2       28.742666       13.772770                                                           
 Model                            194         94                                                            -1.2101335                              1_GWF-(84301)
 Backtracking                     195                     1          2       28.492213       13.919610                                                           
 Model                            195         87                                                            -1.2000175                              1_GWF-(84301)
 Backtracking                     196                     1          2       28.245087       14.062527                                                           
 Model                            196         86                                                            -1.1905524                              1_GWF-(84301)
 Backtracking                     197                     1          2       27.995369       14.201534                                                           
 Model                            197         89                                                            -1.1806373                              1_GWF-(84301)
 Backtracking                     198                     1          2       27.751410       14.336727                                                           
 Model                            198         90                                                            -1.1710206                              1_GWF-(84301)
 Backtracking                     199                     1          2       27.508176       14.468149                                                           
 Model                            199         90                                                            -1.1614321                              1_GWF-(84301)
 Backtracking                     200                     1          2       27.267512       14.595864                                                           
 Model                            200         90                                                            -1.1519347                              1_GWF-(84301)
 Backtracking                     201                     1          2       27.028825       14.719928                                                           
 Model                            201         79                                                            -1.1419110                              1_GWF-(84301)
 Backtracking                     202                     1          2       26.798596       14.840458                                                           
 Model                            202         89                                                            -1.1331215                              1_GWF-(84301)
 Backtracking                     203                     1          2       26.557884       14.957389                                                           
 Model                            203         92                                                            -1.1236785                              1_GWF-(84301)
 Backtracking                     204                     1          2       26.326868       15.070851                                                           
 Model                            204         94                                                            -1.1144420                              1_GWF-(84301)
 Backtracking                     205                     1          2       26.096678       15.180887                                                           
 Model                            205         76                                                            -1.1051458                              1_GWF-(84301)
 Backtracking                     206                     1          2       25.869753       15.287562                                                           
 Model                            206        101                                                            -1.0964105                              1_GWF-(84301)
 Backtracking                     207                     1          2       25.638073       15.390862                                                           
 Model                            207         91                                                            -1.0873084                              1_GWF-(84301)
 Backtracking                     208                     1          2       25.416539       15.490923                                                           
 Model                            208         87                                                            -1.0784878                              1_GWF-(84301)
 Backtracking                     209                     1          2       25.193034       15.587757                                                           
 Model                            209        113                                                            -1.0696292                              1_GWF-(84301)
 Backtracking                     210                     1          2       24.970895       15.681408                                                           
 Model                            210        109                                                            -1.0608473                              1_GWF-(84301)
 Backtracking                     211                     1          2       24.752115       15.771942                                                           
 Model                            211         88                                                            -1.0520483                              1_GWF-(84301)
 Backtracking                     212                     1          2       24.537570       15.859432                                                           
 Model                            212         95                                                            -1.0431384                              1_GWF-(84301)
 Backtracking                     213                     1          2       24.325099       15.943928                                                           
 Model                            213         79                                                            -1.0347597                              1_GWF-(84301)
 Backtracking                     214                     1          2       24.111006       16.025445                                                           
 Model                            214         95                                                            -1.0263610                              1_GWF-(84301)
 Backtracking                     215                     1          1       23.897961       16.811410                                                           
 Model                            215         87                                                           -0.94224346                              1_GWF-(84301)
 Backtracking                     216                     1          1       21.921692       17.321553                                                           
 Model                            216         90                                                           -0.86477713                              1_GWF-(84301)
 Backtracking                     217                     1          1       20.110169       17.599786                                                           
 Model                            217        109                                                           -0.79372068                              1_GWF-(84301)
 Backtracking                     218                     0          0       18.446822       18.446822                       *                                   
 Model                            218         82                                                           -0.14150735                              1_GWF-(84301)
 Backtracking                     219                     0          0       3.3027754       3.3027754                       *                                   
 Model                            219         75                                                       -2.53311151E-02                              1_GWF-(84301)
 Backtracking                     220                     0          0      0.58282429      0.58282429                       *                                   
 Model                            220         11                                                       -1.25573385E-03                              1_GWF-(84301)
 Backtracking                     221                     0          0      0.20752694      0.20752694                       *                                   
 Model                            221         68                                                       -4.58212774E-03                              1_GWF-(84301)
 Backtracking                     222                     0          0      0.10800363      0.10800363                       *                                   
 Model                            222         24                                                       -7.30639514E-04       *                      1_GWF-(79306)
 ----------------------------------------------------------------------------------------------------------------------------------------------------------------


 222 CALLS TO NUMERICAL SOLUTION IN TIME STEP 1 STRESS PERIOD 1
 20994 TOTAL ITERATIONS

 MEMORY MANAGER TOTAL STORAGE BY DATA TYPE, IN MEGABYTES
 -------------------------------
                    ALLOCATED   
 DATA TYPE           MEMORY     
 -------------------------------
 Character        1.04880000E-02
 Logical          4.80000000E-05
 Integer          40.411108     
 Real             97.611024     
 -------------------------------
 Total            138.03267     
 Virtual          0.0000000     
 -------------------------------


 
 Run end date and time (yyyy/mm/dd hh:mm:ss): 2026/01/24  8:54:19
 Elapsed run time:  1 Minutes, 33.502 Seconds
 Normal termination of simulation.
