                                   MODFLOW 6
                U.S. GEOLOGICAL SURVEY MODULAR HYDROLOGIC MODEL
                          GROUNDWATER FLOW MODEL (GWF)
                            VERSION 6.6.0 12/20/2024

   MODFLOW 6 compiled Dec 31 2024 17:10:16 with Intel(R) Fortran Intel(R) 64
   Compiler Classic for applications running on Intel(R) 64, Version 2021.7.0
                             Build 20220726_000000

This software has been approved for release by the U.S. Geological 
Survey (USGS). Although the software has been subjected to rigorous 
review, the USGS reserves the right to update the software as needed 
pursuant to further analysis and review. No warranty, expressed or 
implied, is made by the USGS or the U.S. Government as to the 
functionality of the software and related material nor shall the 
fact of release constitute any such warranty. Furthermore, the 
software is released on condition that neither the USGS nor the U.S. 
Government shall be held liable for any damages resulting from its 
authorized or unauthorized use. Also refer to the USGS Water 
Resources Software User Rights Notice for complete use, copyright, 
and distribution information.


As a work of the United States Government, this USGS product is 
in the public domain within the United States. You can copy, 
modify, distribute, and perform the work, even for commercial 
purposes, all without asking permission. Additionally, USGS 
waives copyright and related rights in the work worldwide 
through CC0 1.0 Universal Public Domain Dedication 
(https://creativecommons.org/publicdomain/zero/1.0/).

The following GNU Lesser General Public License (LGPL) libraries
are used in this USGS product:

    SPARSKIT version 2.0
      ilut, luson, and qsplit 
      (https://www-users.cse.umn.edu/~saad/software/SPARSKIT/)

    RCM - Reverse Cuthill McKee Ordering
      (https://people.math.sc.edu/Burkardt/f_src/rcm/rcm.html)

    BLAS - Basic Linear Algebra Subprograms Level 1
      (https://people.math.sc.edu/Burkardt/f_src/blas1_d/blas1_d.html)

    SPARSEKIT - Sparse Matrix Utility Package
      amux, dperm, dvperm, rperm, and cperm
      (https://people.sc.fsu.edu/~jburkardt/f77_src/sparsekit/sparsekit.html)

The following BSD-3 License libraries are used in this USGS product:

    Modern Fortran DAG Library
      Copyright (c) 2018, Jacob Williams
      All rights reserved.
      (https://github.com/jacobwilliams/daglib)

MODFLOW 6 compiler options: /O2 /heap-arrays:0 /fpe:0 /traceback /nologo /fpp
/c /module:win64\mod_mf6\ /object:win64\obj_mf6\

System command used to initiate simulation:
mf6

MODFLOW was compiled using uniform precision.

Real Variables
  KIND: 8
  TINY (smallest non-zero value):    2.225074-308
  HUGE (largest value):    1.797693+308
  PRECISION: 15
  SIZE IN BITS: 64

Integer Variables
  KIND: 4
  HUGE (largest value): 2147483647
  SIZE IN BITS: 32

Long Integer Variables
  KIND: 8
  HUGE (largest value): 9223372036854775807
  SIZE IN BITS: 64

Logical Variables
  KIND: 4
  SIZE IN BITS: 32
 
 NAMEFILE OPTIONS:
    FLOWS WILL BE SAVED TO BUDGET FILE SPECIFIED IN OUTPUT CONTROL
 END NAMEFILE OPTIONS:

 DISV -- VERTEX GRID DISCRETIZATION PACKAGE, VERSION 1 : 12/23/2015 - INPUT READ FROM MEMPATH: __INPUT__/VORONOI_CASED/DISV                      


 Setting Discretization Options
 End Setting Discretization Options

 Setting Discretization Dimensions
    NLAY = 2
    NCPL = 39992
    NVERT = 83911
 End Setting Discretization Dimensions

 Setting Discretization Griddata
    TOP set from input file
    BOTM set from input file
 End Setting Discretization Griddata

 Discretization Vertex data loaded
 Discretization Cell2d data loaded

 NPF -- NODE PROPERTY FLOW PACKAGE, VERSION 1, 3/30/2015 INPUT READ FROM MEMPATH: __INPUT__/VORONOI_CASED/NPF                       


 IC -- Initial Conditions Package, Version 8, 3/28/2015 input read from mempath: __INPUT__/VORONOI_CASED/IC                        


 Setting NPF Options
    Cell-by-cell flow information will be saved to binary file whenever ICBCFL is not zero.
    Specific discharge will be calculated at cell centers and written to DATA-SPDIS in budget file when requested.
 End Setting NPF Options

 Setting NPF Griddata
    ICELLTYPE set from input file
    K set from input file
    K33 not provided.  Setting K33 = K.
    K22 not provided.  Setting K22 = K.
 End Setting NPF Griddata


 WEL   -- WEL PACKAGE, VERSION 8, 2/22/2014 INPUT READ FROM MEMPATH: __INPUT__/VORONOI_CASED/WELL_PACKAGE              

 PROCESSING WEL BASE OPTIONS
    FLOWS WILL BE SAVED TO BUDGET FILE SPECIFIED IN OUTPUT CONTROL
 END OF WEL BASE OPTIONS

 PROCESSING WEL OPTIONS
 END OF WEL OPTIONS

 PROCESSING WEL BASE DIMENSIONS
    MAXBOUND =   43045
 END OF WEL BASE DIMENSIONS

 RCH   -- RCH PACKAGE, VERSION 8, 2/22/2014 INPUT READ FROM MEMPATH: __INPUT__/VORONOI_CASED/RCH                       

 PROCESSING RCH BASE OPTIONS
    FLOWS WILL BE SAVED TO BUDGET FILE SPECIFIED IN OUTPUT CONTROL
    RCH FLOWS WILL BE PRINTED TO LISTING FILE.
 END OF RCH BASE OPTIONS

 PROCESSING RCH OPTIONS
    RECHARGE WILL BE APPLIED TO SPECIFIED CELL.
 END OF RCH OPTIONS

 PROCESSING RCH BASE DIMENSIONS
    MAXBOUND =   39992
 END OF RCH BASE DIMENSIONS

 EVT   -- EVT PACKAGE, VERSION 8, 2/22/2014 INPUT READ FROM MEMPATH: __INPUT__/VORONOI_CASED/EVT                       

 PROCESSING EVT BASE OPTIONS
    FLOWS WILL BE SAVED TO BUDGET FILE SPECIFIED IN OUTPUT CONTROL
 END OF EVT BASE OPTIONS

 PROCESSING EVT OPTIONS
 END OF EVT OPTIONS

 PROCESSING EVT BASE DIMENSIONS
    MAXBOUND =   33044
 END OF EVT BASE DIMENSIONS

 PROCESSING EVT DIMENSIONS
    NSEG = 1
 END OF EVT DIMENSIONS

 CHD   -- CHD PACKAGE, VERSION 8, 2/22/2014 INPUT READ FROM MEMPATH: __INPUT__/VORONOI_CASED/CHD                       

 PROCESSING CHD BASE OPTIONS
    FLOWS WILL BE SAVED TO BUDGET FILE SPECIFIED IN OUTPUT CONTROL
 END OF CHD BASE OPTIONS

 PROCESSING CHD BASE DIMENSIONS
    MAXBOUND =   17204
 END OF CHD BASE DIMENSIONS
    STRT set from input file
    BINARY GRID INFORMATION WILL BE WRITTEN TO:
      UNIT NUMBER: 1016
      FILE NAME: voronoi_caseD.disv.grb

 OPENED voronoi_caseD.disv.grb
 FILE TYPE:DATA(BINARY)   UNIT 1016   STATUS:REPLACE             
 FORMAT:UNFORMATTED            ACCESS:STREAM              
 ACTION:READWRITE           

      THE LAST TIME STEP WILL BE PRINTED
      THE LAST TIME STEP WILL BE PRINTED
 # File generated by Flopy version 3.9.1 on 02/10/2026 at 23:14:22.

 PROCESSING OC OPTIONS

    BUDGET INFORMATION WILL BE WRITTEN TO:
      UNIT NUMBER: 1017
      FILE NAME: voronoi_caseD.cbc

 OPENED voronoi_caseD.cbc
 FILE TYPE:DATA(BINARY)   UNIT 1017   STATUS:REPLACE             
 FORMAT:UNFORMATTED            ACCESS:STREAM              
 ACTION:READWRITE           

    HEAD INFORMATION WILL BE WRITTEN TO:
      UNIT NUMBER: 1018
      FILE NAME: voronoi_caseD.hds

 OPENED voronoi_caseD.hds
 FILE TYPE:DATA(BINARY)   UNIT 1018   STATUS:REPLACE             
 FORMAT:UNFORMATTED            ACCESS:STREAM              
 ACTION:READWRITE           

 END OF OC OPTIONS

start timestep kper="1" kstp="1" mode="normal"


 BEGIN READING OUTPUT CONTROL FOR STRESS PERIOD 1
      THE LAST TIME STEP WILL BE SAVED
      THE LAST TIME STEP WILL BE SAVED
      THE LAST TIME STEP WILL BE PRINTED

 END READING OUTPUT CONTROL FOR STRESS PERIOD 1
 UBDSV1 SAVING     FLOW-JA-FACE ON UNIT   1017 AT TIME STEP      1, STRESS PERIOD      1
 UBDSV06 SAVING       DATA-SPDIS IN MODEL VORONOI_CASED    PACKAGE NPF             CONNECTED TO MODEL VORONOI_CASED    PACKAGE NPF              ON UNIT   1017 AT TIME STEP      1, STRESS PERIOD      1
 UBDSV06 SAVING              WEL IN MODEL VORONOI_CASED    PACKAGE VORONOI_CASED   CONNECTED TO MODEL VORONOI_CASED    PACKAGE WELL_PACKAGE     ON UNIT   1017 AT TIME STEP      1, STRESS PERIOD      1
 UBDSV06 SAVING              RCH IN MODEL VORONOI_CASED    PACKAGE VORONOI_CASED   CONNECTED TO MODEL VORONOI_CASED    PACKAGE RCH              ON UNIT   1017 AT TIME STEP      1, STRESS PERIOD      1
 UBDSV06 SAVING              EVT IN MODEL VORONOI_CASED    PACKAGE VORONOI_CASED   CONNECTED TO MODEL VORONOI_CASED    PACKAGE EVT              ON UNIT   1017 AT TIME STEP      1, STRESS PERIOD      1
 UBDSV06 SAVING              CHD IN MODEL VORONOI_CASED    PACKAGE VORONOI_CASED   CONNECTED TO MODEL VORONOI_CASED    PACKAGE CHD              ON UNIT   1017 AT TIME STEP      1, STRESS PERIOD      1

 RCH PACKAGE (RCH) FLOW RATES   PERIOD      1   STEP        1
 -----------------------------------------------
   NUMBER   CELLID                    RATE      
 -----------------------------------------------
     1      (1,1)                 0.0000000     
     2      (1,2)                 0.0000000     
     3      (1,3)                 0.0000000     
     4      (1,4)                 0.0000000     
     5      (1,5)                 0.0000000     
     6      (1,6)                 0.0000000     
     7      (1,7)                 0.0000000     
     8      (1,8)                 0.0000000     
     9      (1,9)                 0.0000000     
     10     (1,10)                0.0000000     
     11     (1,11)                0.0000000     
     12     (1,12)                0.0000000     
     13     (1,13)                0.0000000     
     14     (1,14)                0.0000000     
     15     (1,15)                0.0000000     
     16     (1,16)                0.0000000     
     17     (1,17)                0.0000000     
     18     (1,18)                0.0000000     
     19     (1,19)                0.0000000     
     20     (1,20)                0.0000000     
     21     (1,21)                0.0000000     
     22     (1,22)                0.0000000     
     23     (1,23)                0.0000000     
     24     (1,24)                0.0000000     
     25     (1,25)                0.0000000     
     26     (1,26)                0.0000000     
     27     (1,27)                0.0000000     
     28     (1,28)                0.0000000     
     29     (1,29)                0.0000000     
     30     (1,30)                0.0000000     
     31     (1,31)                0.0000000     
     32     (1,32)                0.0000000     
     33     (1,33)                0.0000000     
     34     (1,34)                0.0000000     
     35     (1,35)                0.20704107    
     36     (1,36)                0.19664641    
     37     (1,37)                0.13197295    
     38     (1,38)                0.30019100    
     39     (1,39)                0.12053785    
     40     (1,40)                6.47634206E-02
     41     (1,41)                0.12074132    
     42     (1,42)                5.79879324E-02
     43     (1,43)                0.11254235    
     44     (1,44)                0.17503687    
     45     (1,45)                8.10543861E-04
     46     (1,46)                3.62928502E-02
     47     (1,47)                0.11032012    
     48     (1,48)                2.81431243E-03
     49     (1,49)                4.47200276E-02
     50     (1,50)                0.14951668    
     51     (1,51)                0.20425495    
     52     (1,52)                0.11390762    
     53     (1,53)                2.43268676E-02
     54     (1,54)                8.34333285E-03
     55     (1,55)                4.38363284E-02
     56     (1,56)                5.96293339E-03
     57     (1,57)                1.54195973E-03
     58     (1,58)                1.73217390E-02
     59     (1,59)                1.13824028E-02
     60     (1,60)                0.16301081    
     61     (1,61)                0.26214172    
     62     (1,62)                3.80404030E-02
     63     (1,63)                9.51160117E-02
     64     (1,64)                0.17076309    
     65     (1,65)                4.40031793E-03
     66     (1,66)                4.10396805E-02
     67     (1,67)                6.48444685E-03
     68     (1,68)                1.67205038E-04
     69     (1,69)                2.25848189E-03
     70     (1,70)                4.10693684E-03
     71     (1,71)                3.27127046E-03
     72     (1,72)                1.78611410E-03
     73     (1,73)                2.62112926E-03
     74     (1,74)                3.96255359E-03
     75     (1,75)                7.88030742E-02
     76     (1,76)                0.18869267    
     77     (1,77)                2.67366661E-02
     78     (1,78)                2.13149649E-03
     79     (1,79)                5.93660878E-04
     80     (1,80)                1.53385384E-02
     81     (1,81)                1.24258587E-02
     82     (1,82)                1.76910777E-02
     83     (1,83)                8.02712638E-04
     84     (1,84)                4.26707671E-03
     85     (1,85)                3.96166987E-04
     86     (1,86)                3.76557179E-04
     87     (1,87)                1.70236700E-02
     88     (1,88)                1.30854405E-02
     89     (1,89)                2.69234363E-03
     90     (1,90)                4.16303001E-03
     91     (1,91)                2.98647892E-03
     92     (1,92)                1.70897307E-03
     93     (1,93)                7.82964719E-03
     94     (1,94)                1.39749407E-02
     95     (1,95)                3.38646499E-04
     96     (1,96)                3.29419418E-02
     97     (1,97)                3.15584903E-03
     98     (1,98)                3.50968868E-02
     99     (1,99)                1.09710085E-03
    100     (1,100)               7.07289639E-03
    101     (1,101)               1.10489166E-02
    102     (1,102)               2.39516124E-03
    103     (1,103)               2.00649088E-02
    104     (1,104)               1.66319036E-02
    105     (1,105)               4.67792948E-03
    106     (1,106)               3.14424756E-02
    107     (1,107)               1.76826493E-03
    108     (1,108)               2.58635377E-02
    109     (1,109)               2.38546278E-02
    110     (1,110)               7.02678692E-04
    111     (1,111)               8.84717728E-04
    112     (1,112)               9.17823109E-03
    113     (1,113)               3.31851217E-03
    114     (1,114)               7.55520070E-03
    115     (1,115)               2.18045508E-05
    116     (1,116)               2.25029376E-04
    117     (1,117)               1.59126672E-04
    118     (1,118)               1.38512903E-03
    119     (1,119)               5.16016702E-04
    120     (1,120)               3.35398637E-04
    121     (1,121)               4.66554325E-03
    122     (1,122)               1.57296910E-02
    123     (1,123)               5.22265039E-03
    124     (1,124)               4.04524399E-04
    125     (1,125)               1.50037698E-02
    126     (1,126)               9.20952872E-03
    127     (1,127)               4.66413723E-03
    128     (1,128)               1.28299563E-02
    129     (1,129)               1.09483719E-03
    130     (1,130)               0.16403887    
    131     (1,131)               9.63939662E-03
    132     (1,132)               1.02975889E-02
    133     (1,133)               3.83184271E-04
    134     (1,134)               3.14487070E-02
    135     (1,135)               1.79106970E-02
    136     (1,136)               5.65532945E-03
    137     (1,137)               2.72362280E-03
    138     (1,138)               1.07978315E-02
    139     (1,139)               1.52063123E-02
    140     (1,140)               1.62927745E-02
    141     (1,141)               4.68925233E-03
    142     (1,142)               3.61618150E-02
    143     (1,143)               2.04500806E-02
    144     (1,144)               1.65745472E-02
    145     (1,145)               5.13582313E-02
    146     (1,146)               2.19237913E-03
    147     (1,147)               4.72317823E-02
    148     (1,148)               5.95722626E-02
    149     (1,149)               6.79434890E-03
    150     (1,150)               9.56465742E-03
    151     (1,151)               2.69244932E-03
    152     (1,152)               8.52300152E-04
    153     (1,153)               7.38087504E-05
    154     (1,154)               5.55830675E-05
    155     (1,155)               6.35080011E-05
    156     (1,156)               6.76482943E-05
    157     (1,157)               4.53566275E-05
    158     (1,158)               6.21011896E-05
    159     (1,159)               6.04306814E-05
    160     (1,160)               7.63049147E-05
    161     (1,161)               5.38367115E-05
    162     (1,162)               5.90820690E-05
    163     (1,163)               1.19028155E-04
    164     (1,164)               5.03644640E-05
    165     (1,165)               3.23675600E-05
    166     (1,166)               6.01872724E-05
    167     (1,167)               5.33729925E-05
    168     (1,168)               6.91693600E-05
    169     (1,169)               7.58262807E-05
    170     (1,170)               6.52967723E-05
    171     (1,171)               5.59922956E-05
    172     (1,172)               7.14835905E-05
    173     (1,173)               8.43518084E-05
    174     (1,174)               6.72295233E-05
    175     (1,175)               1.43984498E-04
    176     (1,176)               4.43862245E-05
    177     (1,177)               1.00465302E-04
    178     (1,178)               1.37491655E-04
    179     (1,179)               3.99716840E-05
    180     (1,180)               5.55837285E-05
    181     (1,181)               5.57235194E-05
    182     (1,182)               8.00595391E-05
    183     (1,183)               4.39270435E-05
    184     (1,184)               3.43013520E-05
    185     (1,185)               8.45457852E-05
    186     (1,186)               9.94922510E-05
    187     (1,187)               6.27422621E-05
    188     (1,188)               5.83320778E-05
    189     (1,189)               6.59449767E-05
    190     (1,190)               4.92029110E-05
    191     (1,191)               3.90133584E-05
    192     (1,192)               7.31354017E-05
    193     (1,193)               4.36755081E-05
    194     (1,194)               1.40537277E-04
    195     (1,195)               4.60648229E-05
    196     (1,196)               4.37626486E-05
    197     (1,197)               4.94891873E-05
    198     (1,198)               1.47045940E-04
    199     (1,199)               5.14340649E-05
    200     (1,200)               6.94953588E-05
    201     (1,201)               5.46861402E-05
    202     (1,202)               5.22704343E-05
    203     (1,203)               5.40958277E-05
    204     (1,204)               8.91502608E-05
    205     (1,205)               0.31150708    
    206     (1,206)               4.51247876E-02
    207     (1,207)               4.33690620E-02
    208     (1,208)               2.51071620E-02
    209     (1,209)               9.03770142E-03
    210     (1,210)               6.11735346E-03
    211     (1,211)               1.18844108E-02
    212     (1,212)               2.16429364E-03
    213     (1,213)               7.55666696E-04
    214     (1,214)               9.76838711E-05
    215     (1,215)               1.02816032E-04
    216     (1,216)               4.01371380E-03
    217     (1,217)               2.46134744E-02
    218     (1,218)               6.11264806E-03
    219     (1,219)               3.93946323E-02
    220     (1,220)               8.01243627E-03
    221     (1,221)               2.59637438E-04
    222     (1,222)               2.56598224E-03
    223     (1,223)               3.29888121E-03
    224     (1,224)               1.89646519E-02
    225     (1,225)               2.02044447E-02
    226     (1,226)               5.54248985E-03
    227     (1,227)               1.94334171E-02
    228     (1,228)               2.24325459E-03
    229     (1,229)               1.69756588E-02
    230     (1,230)               2.31850987E-02
    231     (1,231)               1.84254500E-02
    232     (1,232)               9.91243650E-03
    233     (1,233)               3.15031481E-03
    234     (1,234)               0.20123184    
    235     (1,235)               0.11892198    
    236     (1,236)               0.22770850    
    237     (1,237)               3.54193318E-03
    238     (1,238)               2.05177635E-02
    239     (1,239)               3.89544845E-03
    240     (1,240)               1.26436024E-02
    241     (1,241)               5.39576829E-02
    242     (1,242)               0.26893805    
    243     (1,243)               8.77563184E-02
    244     (1,244)               7.35454393E-02
    245     (1,245)               0.15060587    
    246     (1,246)               3.53230942E-03
    247     (1,247)               2.29839276E-04
    248     (1,248)               2.45773502E-04
    249     (1,249)               1.07368558E-03
    250     (1,250)               6.94666269E-04
    251     (1,251)               4.74100316E-06
    252     (1,252)               5.74166486E-07
    253     (1,253)               3.82135539E-06
    254     (1,254)               9.13815073E-03
    255     (1,255)               4.54756513E-02
    256     (1,256)               7.51869785E-02
    257     (1,257)               5.27959157E-02
    258     (1,258)               2.90735073E-02
    259     (1,259)               4.67320730E-04
    260     (1,260)               0.0000000     
    261     (1,261)               0.0000000     
    262     (1,262)               0.0000000     
    263     (1,263)               0.0000000     
    264     (1,264)               0.0000000     
    265     (1,265)               0.0000000     
    266     (1,266)               0.0000000     
    267     (1,267)               0.0000000     
    268     (1,268)               0.0000000     
    269     (1,269)               0.0000000     
    270     (1,270)               0.0000000     
    271     (1,271)               0.0000000     
    272     (1,272)               0.0000000     
    273     (1,273)               0.0000000     
    274     (1,274)               0.0000000     
    275     (1,275)               0.0000000     
    276     (1,276)               0.0000000     
    277     (1,277)               0.0000000     
    278     (1,278)               0.0000000     
    279     (1,279)               0.0000000     
    280     (1,280)               0.0000000     
    281     (1,281)               0.0000000     
    282     (1,282)               0.0000000     
    283     (1,283)               0.0000000     
    284     (1,284)               0.0000000     
    285     (1,285)               0.0000000     
    286     (1,286)               0.0000000     
    287     (1,287)               0.0000000     
    288     (1,288)               0.0000000     
    289     (1,289)               0.0000000     
    290     (1,290)               0.0000000     
    291     (1,291)               0.0000000     
    292     (1,292)               0.0000000     
    293     (1,293)               0.0000000     
    294     (1,294)               0.0000000     
    295     (1,295)               0.0000000     
    296     (1,296)               0.0000000     
    297     (1,297)               0.0000000     
    298     (1,298)               0.0000000     
    299     (1,299)               0.0000000     
    300     (1,300)               0.0000000     
    301     (1,301)               0.0000000     
    302     (1,302)               0.0000000     
    303     (1,303)               0.0000000     
    304     (1,304)               0.0000000     
    305     (1,305)               0.0000000     
    306     (1,306)               0.0000000     
    307     (1,307)               0.0000000     
    308     (1,308)               0.0000000     
    309     (1,309)               0.0000000     
    310     (1,310)               0.0000000     
    311     (1,311)               0.0000000     
    312     (1,312)               0.0000000     
    313     (1,313)               0.0000000     
    314     (1,314)               0.0000000     
    315     (1,315)               0.0000000     
    316     (1,316)               0.0000000     
    317     (1,317)               0.0000000     
    318     (1,318)               0.0000000     
    319     (1,319)               0.0000000     
    320     (1,320)               0.0000000     
    321     (1,321)               0.0000000     
    322     (1,322)               0.0000000     
    323     (1,323)               0.0000000     
    324     (1,324)               0.0000000     
    325     (1,325)               0.0000000     
    326     (1,326)               0.0000000     
    327     (1,327)               0.0000000     
    328     (1,328)               0.0000000     
    329     (1,329)               0.0000000     
    330     (1,330)               0.0000000     
    331     (1,331)               0.0000000     
    332     (1,332)               0.0000000     
    333     (1,333)               0.0000000     
    334     (1,334)               0.0000000     
    335     (1,335)               0.0000000     
    336     (1,336)               0.0000000     
    337     (1,337)               0.0000000     
    338     (1,338)               0.0000000     
    339     (1,339)               0.0000000     
    340     (1,340)               0.0000000     
    341     (1,341)               0.0000000     
    342     (1,342)               0.0000000     
    343     (1,343)               0.0000000     
    344     (1,344)               0.0000000     
    345     (1,345)               0.0000000     
    346     (1,346)               0.0000000     
    347     (1,347)               0.0000000     
    348     (1,348)               0.0000000     
    349     (1,349)               0.0000000     
    350     (1,350)               0.0000000     
    351     (1,351)               0.0000000     
    352     (1,352)               0.0000000     
    353     (1,353)               0.0000000     
    354     (1,354)               0.0000000     
    355     (1,355)               0.0000000     
    356     (1,356)               0.0000000     
    357     (1,357)               0.0000000     
    358     (1,358)               0.0000000     
    359     (1,359)               0.0000000     
    360     (1,360)               0.0000000     
    361     (1,361)               0.0000000     
    362     (1,362)               0.0000000     
    363     (1,363)               0.0000000     
    364     (1,364)               0.0000000     
    365     (1,365)               0.0000000     
    366     (1,366)               0.0000000     
    367     (1,367)               0.0000000     
    368     (1,368)               0.0000000     
    369     (1,369)               0.0000000     
    370     (1,370)               0.0000000     
    371     (1,371)               0.0000000     
    372     (1,372)               0.0000000     
    373     (1,373)               0.0000000     
    374     (1,374)               0.0000000     
    375     (1,375)               0.0000000     
    376     (1,376)               0.0000000     
    377     (1,377)               0.0000000     
    378     (1,378)               0.0000000     
    379     (1,379)               0.0000000     
    380     (1,380)               0.0000000     
    381     (1,381)               0.0000000     
    382     (1,382)               0.0000000     
    383     (1,383)               0.0000000     
    384     (1,384)               0.0000000     
    385     (1,385)               0.0000000     
    386     (1,386)               0.0000000     
    387     (1,387)               0.0000000     
    388     (1,388)               0.0000000     
    389     (1,389)               0.0000000     
    390     (1,390)               0.0000000     
    391     (1,391)               0.0000000     
    392     (1,392)               0.0000000     
    393     (1,393)               0.0000000     
    394     (1,394)               0.0000000     
    395     (1,395)               0.0000000     
    396     (1,396)               0.0000000     
    397     (1,397)               0.0000000     
    398     (1,398)               0.0000000     
    399     (1,399)               0.0000000     
    400     (1,400)               0.0000000     
    401     (1,401)               0.0000000     
    402     (1,402)               0.0000000     
    403     (1,403)               0.0000000     
    404     (1,404)               0.0000000     
    405     (1,405)               0.0000000     
    406     (1,406)               0.0000000     
    407     (1,407)               0.0000000     
    408     (1,408)               0.0000000     
    409     (1,409)               0.0000000     
    410     (1,410)               0.0000000     
    411     (1,411)               0.0000000     
    412     (1,412)               0.0000000     
    413     (1,413)               0.0000000     
    414     (1,414)               0.0000000     
    415     (1,415)               0.0000000     
    416     (1,416)               0.0000000     
    417     (1,417)               0.0000000     
    418     (1,418)               0.0000000     
    419     (1,419)               0.0000000     
    420     (1,420)               0.0000000     
    421     (1,421)               0.0000000     
    422     (1,422)               0.0000000     
    423     (1,423)               0.0000000     
    424     (1,424)               0.0000000     
    425     (1,425)               0.0000000     
    426     (1,426)               0.0000000     
    427     (1,427)               0.0000000     
    428     (1,428)               0.0000000     
    429     (1,429)               0.0000000     
    430     (1,430)               0.0000000     
    431     (1,431)               0.0000000     
    432     (1,432)               0.0000000     
    433     (1,433)               0.0000000     
    434     (1,434)               0.0000000     
    435     (1,435)               0.0000000     
    436     (1,436)               0.0000000     
    437     (1,437)               0.0000000     
    438     (1,438)               0.0000000     
    439     (1,439)               0.0000000     
    440     (1,440)               0.0000000     
    441     (1,441)               0.0000000     
    442     (1,442)               0.0000000     
    443     (1,443)               0.0000000     
    444     (1,444)               0.0000000     
    445     (1,445)               0.0000000     
    446     (1,446)               0.0000000     
    447     (1,447)               0.0000000     
    448     (1,448)               0.0000000     
    449     (1,449)               0.0000000     
    450     (1,450)               0.0000000     
    451     (1,451)               0.0000000     
    452     (1,452)               0.0000000     
    453     (1,453)               0.0000000     
    454     (1,454)               0.0000000     
    455     (1,455)               0.0000000     
    456     (1,456)               0.0000000     
    457     (1,457)               0.0000000     
    458     (1,458)               0.0000000     
    459     (1,459)               0.0000000     
    460     (1,460)               0.0000000     
    461     (1,461)               0.0000000     
    462     (1,462)               0.0000000     
    463     (1,463)               0.0000000     
    464     (1,464)               0.0000000     
    465     (1,465)               0.0000000     
    466     (1,466)               0.0000000     
    467     (1,467)               0.0000000     
    468     (1,468)               0.0000000     
    469     (1,469)               0.0000000     
    470     (1,470)               0.0000000     
    471     (1,471)               0.0000000     
    472     (1,472)               0.0000000     
    473     (1,473)               0.0000000     
    474     (1,474)               0.0000000     
    475     (1,475)               0.0000000     
    476     (1,476)               0.0000000     
    477     (1,477)               0.0000000     
    478     (1,478)               0.0000000     
    479     (1,479)               0.0000000     
    480     (1,480)               0.0000000     
    481     (1,481)               0.0000000     
    482     (1,482)               0.0000000     
    483     (1,483)               0.0000000     
    484     (1,484)               0.0000000     
    485     (1,485)               0.0000000     
    486     (1,486)               0.0000000     
    487     (1,487)               0.0000000     
    488     (1,488)               0.0000000     
    489     (1,489)               0.0000000     
    490     (1,490)               0.0000000     
    491     (1,491)               0.0000000     
    492     (1,492)               0.0000000     
    493     (1,493)               0.0000000     
    494     (1,494)               0.0000000     
    495     (1,495)               0.0000000     
    496     (1,496)               0.0000000     
    497     (1,497)               0.0000000     
    498     (1,498)               0.0000000     
    499     (1,499)               0.0000000     
    500     (1,500)               0.0000000     
    501     (1,501)               0.0000000     
    502     (1,502)               0.0000000     
    503     (1,503)               0.0000000     
    504     (1,504)               0.0000000     
    505     (1,505)               0.0000000     
    506     (1,506)               0.0000000     
    507     (1,507)               0.0000000     
    508     (1,508)               0.0000000     
    509     (1,509)               0.0000000     
    510     (1,510)               0.0000000     
    511     (1,511)               0.0000000     
    512     (1,512)               0.0000000     
    513     (1,513)               0.0000000     
    514     (1,514)               0.0000000     
    515     (1,515)               0.0000000     
    516     (1,516)               0.0000000     
    517     (1,517)               0.0000000     
    518     (1,518)               0.0000000     
    519     (1,519)               0.0000000     
    520     (1,520)               0.0000000     
    521     (1,521)               0.0000000     
    522     (1,522)               0.0000000     
    523     (1,523)               0.0000000     
    524     (1,524)               0.0000000     
    525     (1,525)               0.0000000     
    526     (1,526)               0.0000000     
    527     (1,527)               0.0000000     
    528     (1,528)               0.0000000     
    529     (1,529)               0.0000000     
    530     (1,530)               0.0000000     
    531     (1,531)               0.0000000     
    532     (1,532)               0.0000000     
    533     (1,533)               0.0000000     
    534     (1,534)               0.0000000     
    535     (1,535)               0.0000000     
    536     (1,536)               0.0000000     
    537     (1,537)               0.0000000     
    538     (1,538)               0.0000000     
    539     (1,539)               0.0000000     
    540     (1,540)               0.0000000     
    541     (1,541)               0.0000000     
    542     (1,542)               0.0000000     
    543     (1,543)               0.0000000     
    544     (1,544)               0.0000000     
    545     (1,545)               0.0000000     
    546     (1,546)               0.0000000     
    547     (1,547)               0.0000000     
    548     (1,548)               0.0000000     
    549     (1,549)               0.0000000     
    550     (1,550)               0.0000000     
    551     (1,551)               0.0000000     
    552     (1,552)               0.0000000     
    553     (1,553)               0.0000000     
    554     (1,554)               0.0000000     
    555     (1,555)               0.0000000     
    556     (1,556)               0.0000000     
    557     (1,557)               0.0000000     
    558     (1,558)               0.0000000     
    559     (1,559)               0.0000000     
    560     (1,560)               0.0000000     
    561     (1,561)               0.0000000     
    562     (1,562)               0.0000000     
    563     (1,563)               0.0000000     
    564     (1,564)               0.0000000     
    565     (1,565)               0.0000000     
    566     (1,566)               0.0000000     
    567     (1,567)               0.0000000     
    568     (1,568)               0.0000000     
    569     (1,569)               0.0000000     
    570     (1,570)               0.0000000     
    571     (1,571)               0.0000000     
    572     (1,572)               0.0000000     
    573     (1,573)               0.0000000     
    574     (1,574)               0.0000000     
    575     (1,575)               0.0000000     
    576     (1,576)               0.0000000     
    577     (1,577)               0.0000000     
    578     (1,578)               0.0000000     
    579     (1,579)               0.0000000     
    580     (1,580)               0.0000000     
    581     (1,581)               0.0000000     
    582     (1,582)               0.0000000     
    583     (1,583)               0.0000000     
    584     (1,584)               0.0000000     
    585     (1,585)               0.0000000     
    586     (1,586)               0.0000000     
    587     (1,587)               0.0000000     
    588     (1,588)               0.0000000     
    589     (1,589)               0.0000000     
    590     (1,590)               0.0000000     
    591     (1,591)               0.0000000     
    592     (1,592)               0.0000000     
    593     (1,593)               0.0000000     
    594     (1,594)               0.0000000     
    595     (1,595)               0.0000000     
    596     (1,596)               0.0000000     
    597     (1,597)               0.0000000     
    598     (1,598)               0.0000000     
    599     (1,599)               0.0000000     
    600     (1,600)               0.0000000     
    601     (1,601)               0.0000000     
    602     (1,602)               0.0000000     
    603     (1,603)               0.0000000     
    604     (1,604)               0.0000000     
    605     (1,605)               0.0000000     
    606     (1,606)               0.0000000     
    607     (1,607)               0.0000000     
    608     (1,608)               0.0000000     
    609     (1,609)               0.0000000     
    610     (1,610)               0.0000000     
    611     (1,611)               0.0000000     
    612     (1,612)               0.0000000     
    613     (1,613)               0.0000000     
    614     (1,614)               0.0000000     
    615     (1,615)               0.0000000     
    616     (1,616)               0.0000000     
    617     (1,617)               0.0000000     
    618     (1,618)               0.0000000     
    619     (1,619)               0.0000000     
    620     (1,620)               0.0000000     
    621     (1,621)               0.0000000     
    622     (1,622)               0.0000000     
    623     (1,623)               0.0000000     
    624     (1,624)               0.0000000     
    625     (1,625)               0.0000000     
    626     (1,626)               0.0000000     
    627     (1,627)               0.0000000     
    628     (1,628)               0.0000000     
    629     (1,629)               0.0000000     
    630     (1,630)               0.0000000     
    631     (1,631)               0.0000000     
    632     (1,632)               0.0000000     
    633     (1,633)               0.0000000     
    634     (1,634)               0.0000000     
    635     (1,635)               0.0000000     
    636     (1,636)               0.0000000     
    637     (1,637)               0.0000000     
    638     (1,638)               0.0000000     
    639     (1,639)               0.0000000     
    640     (1,640)               0.0000000     
    641     (1,641)               0.0000000     
    642     (1,642)               0.0000000     
    643     (1,643)               4.35838648E-05
    644     (1,644)               8.56196177E-05
    645     (1,645)               9.81850144E-05
    646     (1,646)               1.41590414E-04
    647     (1,647)               2.29384325E-04
    648     (1,648)               2.71242701E-04
    649     (1,649)               8.30172347E-05
    650     (1,650)               7.38468049E-06
    651     (1,651)               8.62997426E-06
    652     (1,652)               1.04812223E-07
    653     (1,653)               9.13345079E-08
    654     (1,654)               3.51299554E-05
    655     (1,655)               3.34940913E-04
    656     (1,656)               2.26637993E-04
    657     (1,657)               4.57511713E-05
    658     (1,658)               5.47232798E-05
    659     (1,659)               1.73376637E-04
    660     (1,660)               1.11419005E-04
    661     (1,661)               1.42712270E-04
    662     (1,662)               1.95366380E-04
    663     (1,663)               1.03432782E-04
    664     (1,664)               6.96853585E-05
    665     (1,665)               9.32146350E-06
    666     (1,666)               7.31241692E-06
    667     (1,667)               1.47285371E-04
    668     (1,668)               6.84869913E-05
    669     (1,669)               5.47963339E-05
    670     (1,670)               9.08949868E-05
    671     (1,671)               7.93889972E-05
    672     (1,672)               3.70539745E-05
    673     (1,673)               1.78577410E-06
    674     (1,674)               1.22287772E-06
    675     (1,675)               1.01120387E-04
    676     (1,676)               1.22392651E-06
    677     (1,677)               1.53236031E-06
    678     (1,678)               4.88077038E-07
    679     (1,679)               7.43603432E-07
    680     (1,680)               1.90635946E-05
    681     (1,681)               1.01677162E-04
    682     (1,682)               5.15925760E-05
    683     (1,683)               2.97292397E-05
    684     (1,684)               2.39160389E-05
    685     (1,685)               3.83068026E-05
    686     (1,686)               6.83696816E-06
    687     (1,687)               4.48570966E-07
    688     (1,688)               5.75668234E-07
    689     (1,689)               4.37192575E-05
    690     (1,690)               1.98272813E-05
    691     (1,691)               2.62270193E-05
    692     (1,692)               9.04934051E-05
    693     (1,693)               2.21448700E-04
    694     (1,694)               1.19346775E-04
    695     (1,695)               3.83701015E-07
    696     (1,696)               2.14501294E-07
    697     (1,697)               1.68376437E-06
    698     (1,698)               6.25430529E-05
    699     (1,699)               5.49191499E-05
    700     (1,700)               3.04919916E-05
    701     (1,701)               2.90346393E-06
    702     (1,702)               2.84506663E-06
    703     (1,703)               1.73023326E-05
    704     (1,704)               3.27368093E-07
    705     (1,705)               2.39105740E-07
    706     (1,706)               7.72880174E-05
    707     (1,707)               4.35161800E-05
    708     (1,708)               3.28151837E-05
    709     (1,709)               3.90635941E-08
    710     (1,710)               4.03627129E-08
    711     (1,711)               1.73725953E-06
    712     (1,712)               3.04886506E-07
    713     (1,713)               3.06426200E-07
    714     (1,714)               2.57751087E-05
    715     (1,715)               7.15891641E-05
    716     (1,716)               2.89983839E-05
    717     (1,717)               9.03275545E-06
    718     (1,718)               5.33437963E-06
    719     (1,719)               1.57710003E-05
    720     (1,720)               1.77496268E-05
    721     (1,721)               2.77307475E-07
    722     (1,722)               1.95252005E-07
    723     (1,723)               1.31017963E-05
    724     (1,724)               8.53198312E-06
    725     (1,725)               8.03796252E-08
    726     (1,726)               7.92154105E-08
    727     (1,727)               9.17895173E-05
    728     (1,728)               2.08923538E-05
    729     (1,729)               3.80611601E-07
    730     (1,730)               4.95232348E-07
    731     (1,731)               1.23508756E-05
    732     (1,732)               1.21045427E-04
    733     (1,733)               5.58121426E-04
    734     (1,734)               7.40476876E-04
    735     (1,735)               6.81885728E-04
    736     (1,736)               6.67131299E-04
    737     (1,737)               7.85518473E-04
    738     (1,738)               5.45222686E-04
    739     (1,739)               5.44992569E-04
    740     (1,740)               6.16998741E-04
    741     (1,741)               6.22705923E-04
    742     (1,742)               5.05571566E-04
    743     (1,743)               2.41837764E-04
    744     (1,744)               3.47944956E-04
    745     (1,745)               4.34934053E-04
    746     (1,746)               3.06327043E-04
    747     (1,747)               4.24614219E-04
    748     (1,748)               5.59954702E-04
    749     (1,749)               4.77438081E-04
    750     (1,750)               5.76921133E-04
    751     (1,751)               2.70408756E-04
    752     (1,752)               3.77116256E-04
    753     (1,753)               4.99638299E-04
    754     (1,754)               7.54183762E-04
    755     (1,755)               5.18712805E-04
    756     (1,756)               5.18485161E-04
    757     (1,757)               5.91688897E-04
    758     (1,758)               5.97855961E-04
    759     (1,759)               4.58402931E-04
    760     (1,760)               1.52054474E-04
    761     (1,761)               4.31980334E-06
    762     (1,762)               2.91406907E-06
    763     (1,763)               3.33821432E-06
    764     (1,764)               5.39736470E-06
    765     (1,765)               1.49478649E-04
    766     (1,766)               4.99963703E-05
    767     (1,767)               1.68594268E-05
    768     (1,768)               1.78418838E-05
    769     (1,769)               6.11731057E-06
    770     (1,770)               2.90382684E-06
    771     (1,771)               6.45116348E-06
    772     (1,772)               1.49090988E-04
    773     (1,773)               9.93915483E-05
    774     (1,774)               2.50155033E-05
    775     (1,775)               6.28714313E-06
    776     (1,776)               9.30644463E-06
    777     (1,777)               1.75671660E-04
    778     (1,778)               2.86233034E-04
    779     (1,779)               4.24226864E-05
    780     (1,780)               4.23800472E-05
    781     (1,781)               1.76633206E-04
    782     (1,782)               1.01382921E-04
    783     (1,783)               2.04644590E-06
    784     (1,784)               2.23135562E-06
    785     (1,785)               1.87051502E-04
    786     (1,786)               6.52501980E-04
    787     (1,787)               5.09007844E-04
    788     (1,788)               6.23476991E-04
    789     (1,789)               6.55387284E-04
    790     (1,790)               6.43324168E-04
    791     (1,791)               6.54734440E-04
    792     (1,792)               5.14908119E-04
    793     (1,793)               5.49667150E-04
    794     (1,794)               7.08779829E-04
    795     (1,795)               3.37184330E-04
    796     (1,796)               1.42994369E-04
    797     (1,797)               3.74970833E-05
    798     (1,798)               3.33465457E-05
    799     (1,799)               7.48753749E-05
    800     (1,800)               2.11269267E-05
    801     (1,801)               1.52072945E-05
    802     (1,802)               5.34336878E-05
    803     (1,803)               8.99948092E-05
    804     (1,804)               4.21092457E-04
    805     (1,805)               2.86502016E-04
    806     (1,806)               1.52163619E-04
    807     (1,807)               2.35398786E-06
    808     (1,808)               3.22389606E-06
    809     (1,809)               2.20527148E-04
    810     (1,810)               2.82248955E-04
    811     (1,811)               2.96507182E-05
    812     (1,812)               2.68604448E-05
    813     (1,813)               2.66818007E-04
    814     (1,814)               3.05984107E-04
    815     (1,815)               3.80142677E-05
    816     (1,816)               9.55440846E-06
    817     (1,817)               5.30647697E-07
    818     (1,818)               5.96955752E-07
    819     (1,819)               3.16289855E-04
    820     (1,820)               4.47740337E-04
    821     (1,821)               3.48146461E-04
    822     (1,822)               1.17874241E-04
    823     (1,823)               8.18281180E-05
    824     (1,824)               3.31675073E-05
    825     (1,825)               3.42800155E-05
    826     (1,826)               4.00637748E-04
    827     (1,827)               7.65882403E-04
    828     (1,828)               3.49640960E-04
    829     (1,829)               3.43215306E-05
    830     (1,830)               2.10060091E-05
    831     (1,831)               3.31150856E-05
    832     (1,832)               5.97930365E-05
    833     (1,833)               1.21459119E-04
    834     (1,834)               1.15592739E-04
    835     (1,835)               3.15533623E-04
    836     (1,836)               5.21136388E-04
    837     (1,837)               3.91116040E-04
    838     (1,838)               6.72442208E-04
    839     (1,839)               6.72368767E-04
    840     (1,840)               5.59819515E-04
    841     (1,841)               5.75347820E-04
    842     (1,842)               4.63232158E-04
    843     (1,843)               4.49519079E-04
    844     (1,844)               2.74670989E-04
    845     (1,845)               5.78041871E-05
    846     (1,846)               2.00045754E-05
    847     (1,847)               5.33981794E-08
    848     (1,848)               3.73287865E-08
    849     (1,849)               1.78144768E-05
    850     (1,850)               1.00846207E-04
    851     (1,851)               3.47551612E-04
    852     (1,852)               9.57493392E-05
    853     (1,853)               2.01044514E-05
    854     (1,854)               4.40426084E-05
    855     (1,855)               1.28874323E-04
    856     (1,856)               2.32582291E-05
    857     (1,857)               1.93633634E-05
    858     (1,858)               2.34797402E-04
    859     (1,859)               3.15138476E-04
    860     (1,860)               2.77040618E-04
    861     (1,861)               1.95973629E-04
    862     (1,862)               8.53843948E-05
    863     (1,863)               1.03629555E-04
    864     (1,864)               3.01250553E-04
    865     (1,865)               3.59678531E-05
    866     (1,866)               2.81361071E-05
    867     (1,867)               1.21062348E-04
    868     (1,868)               4.32420090E-05
    869     (1,869)               4.53578129E-06
    870     (1,870)               9.10474846E-06
    871     (1,871)               2.68545340E-04
    872     (1,872)               2.34046390E-04
    873     (1,873)               2.98916826E-05
    874     (1,874)               2.65449417E-05
    875     (1,875)               1.61807423E-04
    876     (1,876)               2.29374961E-04
    877     (1,877)               2.77770433E-04
    878     (1,878)               7.31011940E-04
    879     (1,879)               3.56943265E-04
    880     (1,880)               1.46899926E-04
    881     (1,881)               3.30786507E-05
    882     (1,882)               8.52736474E-05
    883     (1,883)               1.32804245E-04
    884     (1,884)               2.32985379E-05
    885     (1,885)               2.04251705E-05
    886     (1,886)               3.03837111E-05
    887     (1,887)               4.52116850E-05
    888     (1,888)               2.56278701E-04
    889     (1,889)               3.27563601E-04
    890     (1,890)               2.32283019E-05
    891     (1,891)               1.29276891E-05
    892     (1,892)               3.08391166E-04
    893     (1,893)               4.97707556E-04
    894     (1,894)               1.67239796E-04
    895     (1,895)               6.24764975E-05
    896     (1,896)               3.62198272E-06
    897     (1,897)               1.57449264E-06
    898     (1,898)               1.74987876E-06
    899     (1,899)               5.80509027E-06
    900     (1,900)               1.30970045E-04
    901     (1,901)               3.00022540E-04
    902     (1,902)               1.46854080E-04
    903     (1,903)               4.23403112E-07
    904     (1,904)               1.91864299E-07
    905     (1,905)               2.51551630E-06
    906     (1,906)               9.41017080E-06
    907     (1,907)               6.77154926E-06
    908     (1,908)               2.83792472E-05
    909     (1,909)               1.48328647E-04
    910     (1,910)               2.19918926E-04
    911     (1,911)               2.60011018E-04
    912     (1,912)               5.18946909E-04
    913     (1,913)               2.91460707E-04
    914     (1,914)               8.25599740E-06
    915     (1,915)               5.11059247E-06
    916     (1,916)               3.00431369E-05
    917     (1,917)               1.55395103E-04
    918     (1,918)               4.12102881E-04
    919     (1,919)               2.26341657E-04
    920     (1,920)               2.31506053E-04
    921     (1,921)               1.42926272E-04
    922     (1,922)               5.47512303E-05
    923     (1,923)               2.17879299E-05
    924     (1,924)               2.81316239E-05
    925     (1,925)               2.12420390E-04
    926     (1,926)               5.62330471E-04
    927     (1,927)               6.14918006E-04
    928     (1,928)               5.75923347E-04
    929     (1,929)               4.57827403E-04
    930     (1,930)               2.55932067E-04
    931     (1,931)               2.36071003E-05
    932     (1,932)               4.10397989E-06
    933     (1,933)               8.37616566E-06
    934     (1,934)               9.14480253E-05
    935     (1,935)               3.76057724E-04
    936     (1,936)               5.12523124E-04
    937     (1,937)               1.30503305E-04
    938     (1,938)               1.53909051E-04
    939     (1,939)               3.66597997E-04
    940     (1,940)               1.32252219E-05
    941     (1,941)               2.24561019E-05
    942     (1,942)               3.08095003E-04
    943     (1,943)               2.87888999E-04
    944     (1,944)               2.69295088E-05
    945     (1,945)               2.57607322E-05
    946     (1,946)               2.44346436E-04
    947     (1,947)               2.52965851E-04
    948     (1,948)               3.57367078E-05
    949     (1,949)               2.82171468E-05
    950     (1,950)               1.66020519E-05
    951     (1,951)               7.44942142E-06
    952     (1,952)               4.21554238E-06
    953     (1,953)               5.59883896E-06
    954     (1,954)               5.09821521E-06
    955     (1,955)               6.23536051E-06
    956     (1,956)               2.71461274E-05
    957     (1,957)               9.57537623E-07
    958     (1,958)               9.10924981E-07
    959     (1,959)               1.83869036E-05
    960     (1,960)               1.83764380E-09
    961     (1,961)               2.17419280E-09
    962     (1,962)               1.25289787E-05
    963     (1,963)               1.46024675E-09
    964     (1,964)               1.23396098E-06
    965     (1,965)               8.20870703E-07
    966     (1,966)               2.12229689E-06
    967     (1,967)               7.75934557E-08
    968     (1,968)               8.76773468E-08
    969     (1,969)               3.00400127E-05
    970     (1,970)               2.21191408E-05
    971     (1,971)               1.84696360E-05
    972     (1,972)               1.31260878E-05
    973     (1,973)               2.08006713E-05
    974     (1,974)               7.24370205E-07
    975     (1,975)               6.64885642E-07
    976     (1,976)               9.65593260E-06
    977     (1,977)               1.69534631E-04
    978     (1,978)               3.94604382E-05
    979     (1,979)               1.47156867E-05
    980     (1,980)               7.59815141E-06
    981     (1,981)               9.91484530E-06
    982     (1,982)               1.81852244E-05
    983     (1,983)               1.92597689E-05
    984     (1,984)               2.63165456E-08
    985     (1,985)               2.54315005E-08
    986     (1,986)               8.45264796E-06
    987     (1,987)               1.00436070E-05
    988     (1,988)               8.85528386E-06
    989     (1,989)               1.24203747E-04
    990     (1,990)               3.94337419E-05
    991     (1,991)               2.51289304E-05
    992     (1,992)               8.64045861E-05
    993     (1,993)               2.49472709E-05
    994     (1,994)               3.46502183E-06
    995     (1,995)               5.51104334E-06
    996     (1,996)               5.67309024E-05
    997     (1,997)               6.28552628E-05
    998     (1,998)               3.62773545E-05
    999     (1,999)               3.75531986E-05
    1000    (1,1000)              6.86783562E-05
    1001    (1,1001)              1.37105633E-04
    1002    (1,1002)              9.58382144E-05
    1003    (1,1003)              9.78845123E-05
    1004    (1,1004)              6.98708256E-05
    1005    (1,1005)              6.98003503E-05
    1006    (1,1006)              6.16626916E-05
    1007    (1,1007)              2.74414840E-05
    1008    (1,1008)              6.79369519E-06
    1009    (1,1009)              3.23858968E-06
    1010    (1,1010)              1.61580447E-05
    1011    (1,1011)              2.28520739E-05
    1012    (1,1012)              3.47713841E-05
    1013    (1,1013)              3.23871313E-05
    1014    (1,1014)              1.59234151E-05
    1015    (1,1015)              1.38427172E-05
    1016    (1,1016)              3.20736646E-05
    1017    (1,1017)              9.99089221E-05
    1018    (1,1018)              5.07694680E-06
    1019    (1,1019)              4.40092975E-06
    1020    (1,1020)              9.57265970E-08
    1021    (1,1021)              8.04281587E-08
    1022    (1,1022)              7.70641024E-06
    1023    (1,1023)              7.33655790E-06
    1024    (1,1024)              6.85268620E-07
    1025    (1,1025)              8.99759231E-08
    1026    (1,1026)              8.52817893E-08
    1027    (1,1027)              2.61619035E-05
    1028    (1,1028)              2.22368890E-05
    1029    (1,1029)              1.52409701E-05
    1030    (1,1030)              1.89998504E-06
    1031    (1,1031)              8.94804215E-07
    1032    (1,1032)              2.76798695E-06
    1033    (1,1033)              1.06181019E-05
    1034    (1,1034)              1.91956618E-05
    1035    (1,1035)              5.11812314E-05
    1036    (1,1036)              4.31782303E-05
    1037    (1,1037)              2.16848532E-05
    1038    (1,1038)              1.49782468E-05
    1039    (1,1039)              1.31373913E-05
    1040    (1,1040)              8.92305047E-07
    1041    (1,1041)              1.95656359E-08
    1042    (1,1042)              2.31263371E-08
    1043    (1,1043)              1.81885937E-05
    1044    (1,1044)              8.05675749E-06
    1045    (1,1045)              1.28874421E-05
    1046    (1,1046)              7.61951146E-06
    1047    (1,1047)              4.80924391E-06
    1048    (1,1048)              5.01214715E-05
    1049    (1,1049)              8.27464801E-05
    1050    (1,1050)              2.07075214E-05
    1051    (1,1051)              2.47526471E-05
    1052    (1,1052)              1.42564203E-04
    1053    (1,1053)              1.53340249E-04
    1054    (1,1054)              1.38178238E-04
    1055    (1,1055)              6.15158090E-06
    1056    (1,1056)              4.51693049E-06
    1057    (1,1057)              2.03234334E-05
    1058    (1,1058)              4.20860699E-06
    1059    (1,1059)              3.88125511E-06
    1060    (1,1060)              6.22489617E-06
    1061    (1,1061)              6.80025631E-06
    1062    (1,1062)              6.56562562E-05
    1063    (1,1063)              1.19012931E-04
    1064    (1,1064)              7.37942291E-06
    1065    (1,1065)              6.64647157E-06
    1066    (1,1066)              6.09640722E-06
    1067    (1,1067)              6.13946321E-06
    1068    (1,1068)              1.93632247E-06
    1069    (1,1069)              2.19829319E-06
    1070    (1,1070)              1.81338774E-05
    1071    (1,1071)              4.15963048E-05
    1072    (1,1072)              5.76018220E-05
    1073    (1,1073)              1.56675543E-04
    1074    (1,1074)              4.71772628E-04
    1075    (1,1075)              7.37226846E-04
    1076    (1,1076)              3.21447156E-04
    1077    (1,1077)              3.48150221E-05
    1078    (1,1078)              3.01242480E-05
    1079    (1,1079)              1.37120123E-04
    1080    (1,1080)              6.68287622E-07
    1081    (1,1081)              6.52961762E-07
    1082    (1,1082)              2.77852364E-06
    1083    (1,1083)              1.47474134E-06
    1084    (1,1084)              2.06048617E-08
    1085    (1,1085)              2.10195519E-08
    1086    (1,1086)              7.80239987E-06
    1087    (1,1087)              1.17390760E-05
    1088    (1,1088)              2.23788030E-06
    1089    (1,1089)              8.37529970E-08
    1090    (1,1090)              1.07648187E-07
    1091    (1,1091)              2.16678004E-06
    1092    (1,1092)              1.63301052E-06
    1093    (1,1093)              6.42703281E-07
    1094    (1,1094)              1.27058639E-06
    1095    (1,1095)              3.49296966E-05
    1096    (1,1096)              2.15355591E-06
    1097    (1,1097)              1.74011387E-06
    1098    (1,1098)              4.84483164E-05
    1099    (1,1099)              7.93830854E-08
    1100    (1,1100)              8.65961497E-08
    1101    (1,1101)              5.61203214E-05
    1102    (1,1102)              1.49556087E-04
    1103    (1,1103)              5.17197776E-05
    1104    (1,1104)              2.58054814E-08
    1105    (1,1105)              2.07929070E-08
    1106    (1,1106)              9.54739448E-07
    1107    (1,1107)              2.74345744E-06
    1108    (1,1108)              2.80812639E-05
    1109    (1,1109)              6.53332036E-06
    1110    (1,1110)              3.21503669E-06
    1111    (1,1111)              1.25900624E-06
    1112    (1,1112)              1.45776667E-06
    1113    (1,1113)              4.53073605E-06
    1114    (1,1114)              5.59177582E-09
    1115    (1,1115)              5.15124750E-09
    1116    (1,1116)              1.14931946E-06
    1117    (1,1117)              1.06551990E-06
    1118    (1,1118)              1.93349259E-08
    1119    (1,1119)              1.97918344E-08
    1120    (1,1120)              4.13592279E-07
    1121    (1,1121)              2.52141388E-06
    1122    (1,1122)              8.14174469E-06
    1123    (1,1123)              1.92504808E-05
    1124    (1,1124)              1.13372970E-05
    1125    (1,1125)              6.25084924E-06
    1126    (1,1126)              5.78535972E-07
    1127    (1,1127)              9.97868084E-07
    1128    (1,1128)              2.33729572E-06
    1129    (1,1129)              8.12886176E-08
    1130    (1,1130)              9.19964232E-08
    1131    (1,1131)              2.18829006E-05
    1132    (1,1132)              3.98217280E-06
    1133    (1,1133)              1.02675495E-05
    1134    (1,1134)              5.39062773E-05
    1135    (1,1135)              5.16803015E-05
    1136    (1,1136)              2.38784863E-05
    1137    (1,1137)              1.33297285E-05
    1138    (1,1138)              6.30487383E-06
    1139    (1,1139)              1.21725207E-05
    1140    (1,1140)              1.17501921E-04
    1141    (1,1141)              2.84151427E-04
    1142    (1,1142)              9.20261173E-06
    1143    (1,1143)              4.20603169E-06
    1144    (1,1144)              6.81698822E-06
    1145    (1,1145)              8.59085613E-06
    1146    (1,1146)              8.54415819E-06
    1147    (1,1147)              1.33071361E-05
    1148    (1,1148)              3.48917410E-05
    1149    (1,1149)              2.68802706E-05
    1150    (1,1150)              3.37932997E-08
    1151    (1,1151)              4.41267905E-08
    1152    (1,1152)              3.89224676E-07
    1153    (1,1153)              5.17210418E-07
    1154    (1,1154)              6.65900093E-06
    1155    (1,1155)              1.82577941E-05
    1156    (1,1156)              4.54964842E-05
    1157    (1,1157)              1.02631045E-04
    1158    (1,1158)              8.67387520E-05
    1159    (1,1159)              3.06795194E-05
    1160    (1,1160)              5.04618210E-05
    1161    (1,1161)              2.70666794E-05
    1162    (1,1162)              1.42345563E-05
    1163    (1,1163)              1.31148482E-05
    1164    (1,1164)              3.16095093E-05
    1165    (1,1165)              2.59328288E-05
    1166    (1,1166)              2.54807084E-05
    1167    (1,1167)              3.69547656E-05
    1168    (1,1168)              6.34859393E-05
    1169    (1,1169)              1.06078977E-04
    1170    (1,1170)              7.55838645E-05
    1171    (1,1171)              1.06785540E-04
    1172    (1,1172)              1.41554111E-04
    1173    (1,1173)              1.13836089E-04
    1174    (1,1174)              1.44234142E-04
    1175    (1,1175)              3.13636709E-04
    1176    (1,1176)              1.99479791E-04
    1177    (1,1177)              4.40860808E-04
    1178    (1,1178)              2.74691736E-04
    1179    (1,1179)              4.07545458E-04
    1180    (1,1180)              7.63514701E-04
    1181    (1,1181)              3.98786613E-04
    1182    (1,1182)              1.34827733E-04
    1183    (1,1183)              1.55524324E-05
    1184    (1,1184)              1.55922832E-06
    1185    (1,1185)              1.82629621E-06
    1186    (1,1186)              7.49744360E-05
    1187    (1,1187)              2.49167272E-05
    1188    (1,1188)              9.36742444E-07
    1189    (1,1189)              8.14392973E-08
    1190    (1,1190)              1.05834383E-07
    1191    (1,1191)              9.73661910E-07
    1192    (1,1192)              1.28796547E-06
    1193    (1,1193)              1.62152349E-06
    1194    (1,1194)              1.73306833E-06
    1195    (1,1195)              1.06727502E-05
    1196    (1,1196)              1.35163928E-05
    1197    (1,1197)              3.37124476E-05
    1198    (1,1198)              7.66209407E-05
    1199    (1,1199)              5.26337425E-04
    1200    (1,1200)              5.67597065E-04
    1201    (1,1201)              2.16701970E-04
    1202    (1,1202)              1.89481136E-05
    1203    (1,1203)              5.21055347E-06
    1204    (1,1204)              1.44495514E-06
    1205    (1,1205)              1.86775864E-06
    1206    (1,1206)              4.49482889E-05
    1207    (1,1207)              3.10723702E-04
    1208    (1,1208)              4.98992931E-04
    1209    (1,1209)              3.44258057E-04
    1210    (1,1210)              1.42211089E-04
    1211    (1,1211)              2.26689657E-07
    1212    (1,1212)              1.28288212E-07
    1213    (1,1213)              2.05643848E-05
    1214    (1,1214)              5.78136567E-05
    1215    (1,1215)              9.87854578E-05
    1216    (1,1216)              1.74267965E-05
    1217    (1,1217)              2.31183659E-05
    1218    (1,1218)              3.79820657E-05
    1219    (1,1219)              1.87318588E-06
    1220    (1,1220)              1.14904212E-06
    1221    (1,1221)              2.02088336E-05
    1222    (1,1222)              3.90352249E-05
    1223    (1,1223)              3.83038354E-05
    1224    (1,1224)              3.56217695E-05
    1225    (1,1225)              2.02833769E-05
    1226    (1,1226)              1.74089941E-06
    1227    (1,1227)              9.97759365E-08
    1228    (1,1228)              9.79480238E-08
    1229    (1,1229)              8.54511354E-05
    1230    (1,1230)              3.69189270E-05
    1231    (1,1231)              1.53137227E-05
    1232    (1,1232)              9.70741563E-06
    1233    (1,1233)              2.08315372E-05
    1234    (1,1234)              1.02521429E-04
    1235    (1,1235)              4.59576694E-06
    1236    (1,1236)              4.81690585E-06
    1237    (1,1237)              5.48618292E-06
    1238    (1,1238)              4.32189175E-06
    1239    (1,1239)              5.43180275E-06
    1240    (1,1240)              7.30083532E-06
    1241    (1,1241)              5.42427769E-05
    1242    (1,1242)              1.27805033E-05
    1243    (1,1243)              1.11570651E-05
    1244    (1,1244)              1.28578259E-05
    1245    (1,1245)              1.22288297E-05
    1246    (1,1246)              5.30738465E-05
    1247    (1,1247)              7.68431493E-05
    1248    (1,1248)              7.72630556E-06
    1249    (1,1249)              8.51667410E-06
    1250    (1,1250)              3.55100512E-04
    1251    (1,1251)              3.14171880E-04
    1252    (1,1252)              3.39880523E-05
    1253    (1,1253)              1.83732086E-05
    1254    (1,1254)              4.38493985E-05
    1255    (1,1255)              2.31051003E-05
    1256    (1,1256)              2.72720996E-05
    1257    (1,1257)              4.10516524E-05
    1258    (1,1258)              8.40817702E-05
    1259    (1,1259)              1.87330348E-04
    1260    (1,1260)              5.17907156E-06
    1261    (1,1261)              5.14402630E-06
    1262    (1,1262)              1.27713750E-05
    1263    (1,1263)              2.60767290E-05
    1264    (1,1264)              1.25817045E-04
    1265    (1,1265)              3.54093928E-05
    1266    (1,1266)              5.35089071E-05
    1267    (1,1267)              2.19857823E-05
    1268    (1,1268)              1.12677421E-05
    1269    (1,1269)              6.17340749E-06
    1270    (1,1270)              5.47349829E-06
    1271    (1,1271)              1.73655978E-05
    1272    (1,1272)              1.20012204E-05
    1273    (1,1273)              2.59366721E-06
    1274    (1,1274)              2.69625772E-06
    1275    (1,1275)              2.71539423E-05
    1276    (1,1276)              3.67543405E-05
    1277    (1,1277)              1.16136559E-05
    1278    (1,1278)              9.25023952E-08
    1279    (1,1279)              7.20203281E-08
    1280    (1,1280)              3.80448798E-06
    1281    (1,1281)              2.25998560E-05
    1282    (1,1282)              6.32289243E-05
    1283    (1,1283)              1.21170493E-05
    1284    (1,1284)              9.62352754E-06
    1285    (1,1285)              9.16458682E-06
    1286    (1,1286)              1.05489495E-05
    1287    (1,1287)              5.40466634E-05
    1288    (1,1288)              2.01473533E-08
    1289    (1,1289)              2.53396820E-08
    1290    (1,1290)              2.39744302E-06
    1291    (1,1291)              1.15882107E-05
    1292    (1,1292)              4.46281381E-06
    1293    (1,1293)              7.87447164E-08
    1294    (1,1294)              8.08025180E-08
    1295    (1,1295)              1.04485334E-05
    1296    (1,1296)              9.64529468E-06
    1297    (1,1297)              2.58402491E-05
    1298    (1,1298)              2.50723942E-05
    1299    (1,1299)              7.50718254E-05
    1300    (1,1300)              1.50305686E-07
    1301    (1,1301)              1.62353692E-07
    1302    (1,1302)              2.62962709E-05
    1303    (1,1303)              2.19462305E-04
    1304    (1,1304)              1.39321434E-05
    1305    (1,1305)              1.26508410E-05
    1306    (1,1306)              6.96850846E-05
    1307    (1,1307)              5.37720770E-05
    1308    (1,1308)              7.28207224E-05
    1309    (1,1309)              1.49071508E-05
    1310    (1,1310)              3.57662199E-06
    1311    (1,1311)              6.38600112E-06
    1312    (1,1312)              7.42039260E-05
    1313    (1,1313)              1.00699429E-04
    1314    (1,1314)              9.85812305E-05
    1315    (1,1315)              1.54304869E-04
    1316    (1,1316)              2.84499996E-06
    1317    (1,1317)              1.85068918E-06
    1318    (1,1318)              6.56664051E-09
    1319    (1,1319)              5.50855961E-09
    1320    (1,1320)              2.83972346E-06
    1321    (1,1321)              4.49827189E-05
    1322    (1,1322)              7.72828673E-05
    1323    (1,1323)              1.26591908E-05
    1324    (1,1324)              1.03868496E-05
    1325    (1,1325)              9.18766043E-10
    1326    (1,1326)              1.93949936E-09
    1327    (1,1327)              9.19540768E-07
    1328    (1,1328)              1.02593797E-05
    1329    (1,1329)              1.91759639E-04
    1330    (1,1330)              2.46245569E-06
    1331    (1,1331)              2.01664447E-06
    1332    (1,1332)              2.43041670E-05
    1333    (1,1333)              5.75863722E-06
    1334    (1,1334)              7.91073988E-06
    1335    (1,1335)              1.55193450E-05
    1336    (1,1336)              5.30592850E-06
    1337    (1,1337)              1.69373222E-09
    1338    (1,1338)              9.79198390E-10
    1339    (1,1339)              7.73649225E-06
    1340    (1,1340)              2.90758903E-05
    1341    (1,1341)              9.24392455E-06
    1342    (1,1342)              8.42162455E-06
    1343    (1,1343)              1.22758340E-04
    1344    (1,1344)              8.52690314E-05
    1345    (1,1345)              1.19591908E-04
    1346    (1,1346)              2.69811256E-05
    1347    (1,1347)              2.35720523E-05
    1348    (1,1348)              3.35364176E-05
    1349    (1,1349)              2.06435841E-05
    1350    (1,1350)              1.60347170E-06
    1351    (1,1351)              1.74638412E-06
    1352    (1,1352)              3.06892617E-06
    1353    (1,1353)              4.81689120E-06
    1354    (1,1354)              1.41125169E-04
    1355    (1,1355)              7.37171859E-05
    1356    (1,1356)              1.40339004E-05
    1357    (1,1357)              6.64615837E-06
    1358    (1,1358)              6.76882034E-06
    1359    (1,1359)              2.44918845E-06
    1360    (1,1360)              2.75169213E-06
    1361    (1,1361)              2.55376981E-05
    1362    (1,1362)              1.77485906E-04
    1363    (1,1363)              2.63135883E-05
    1364    (1,1364)              1.80284821E-08
    1365    (1,1365)              2.38996556E-08
    1366    (1,1366)              4.45805454E-06
    1367    (1,1367)              1.45874473E-05
    1368    (1,1368)              2.99178771E-06
    1369    (1,1369)              4.50383811E-09
    1370    (1,1370)              4.83520113E-09
    1371    (1,1371)              1.79487643E-06
    1372    (1,1372)              9.42642695E-07
    1373    (1,1373)              9.07568894E-06
    1374    (1,1374)              1.75327202E-05
    1375    (1,1375)              2.38680953E-05
    1376    (1,1376)              1.77649134E-05
    1377    (1,1377)              2.22978433E-05
    1378    (1,1378)              9.39996110E-05
    1379    (1,1379)              4.91254299E-05
    1380    (1,1380)              5.45288951E-06
    1381    (1,1381)              3.60395422E-06
    1382    (1,1382)              1.27115383E-06
    1383    (1,1383)              1.27669434E-06
    1384    (1,1384)              4.33917767E-06
    1385    (1,1385)              1.60382084E-09
    1386    (1,1386)              6.90065775E-06
    1387    (1,1387)              3.55803165E-06
    1388    (1,1388)              1.67720925E-05
    1389    (1,1389)              7.51010400E-05
    1390    (1,1390)              1.00645705E-04
    1391    (1,1391)              1.39884350E-05
    1392    (1,1392)              4.03985728E-06
    1393    (1,1393)              1.35270753E-05
    1394    (1,1394)              1.02719904E-07
    1395    (1,1395)              9.97524210E-08
    1396    (1,1396)              1.67718582E-05
    1397    (1,1397)              4.11088525E-05
    1398    (1,1398)              1.27826615E-04
    1399    (1,1399)              3.43868474E-04
    1400    (1,1400)              4.12587430E-04
    1401    (1,1401)              1.12118995E-05
    1402    (1,1402)              8.96583376E-06
    1403    (1,1403)              1.33303760E-04
    1404    (1,1404)              2.79203951E-05
    1405    (1,1405)              1.03595461E-05
    1406    (1,1406)              5.47711548E-05
    1407    (1,1407)              3.69631128E-05
    1408    (1,1408)              1.28716798E-05
    1409    (1,1409)              2.71869196E-05
    1410    (1,1410)              3.12812895E-05
    1411    (1,1411)              5.39677358E-05
    1412    (1,1412)              1.67949750E-04
    1413    (1,1413)              7.87443391E-05
    1414    (1,1414)              2.85706718E-05
    1415    (1,1415)              1.53444315E-05
    1416    (1,1416)              6.14768941E-06
    1417    (1,1417)              2.14830565E-05
    1418    (1,1418)              2.54014539E-05
    1419    (1,1419)              2.33356876E-05
    1420    (1,1420)              1.98065965E-05
    1421    (1,1421)              1.38977476E-05
    1422    (1,1422)              7.88841842E-05
    1423    (1,1423)              1.40790631E-04
    1424    (1,1424)              1.11226335E-04
    1425    (1,1425)              8.46462102E-05
    1426    (1,1426)              2.22843416E-06
    1427    (1,1427)              1.03009262E-06
    1428    (1,1428)              4.58256689E-05
    1429    (1,1429)              1.04108971E-04
    1430    (1,1430)              2.89932260E-04
    1431    (1,1431)              3.16220610E-05
    1432    (1,1432)              9.81963073E-06
    1433    (1,1433)              1.97633811E-05
    1434    (1,1434)              4.14314751E-05
    1435    (1,1435)              3.35037011E-05
    1436    (1,1436)              3.58539963E-05
    1437    (1,1437)              7.14023134E-06
    1438    (1,1438)              6.74852193E-06
    1439    (1,1439)              8.01671941E-05
    1440    (1,1440)              1.24848960E-04
    1441    (1,1441)              1.77961164E-06
    1442    (1,1442)              2.05351708E-06
    1443    (1,1443)              5.63342296E-05
    1444    (1,1444)              2.25827279E-04
    1445    (1,1445)              6.14065209E-05
    1446    (1,1446)              1.92149245E-08
    1447    (1,1447)              2.17386167E-08
    1448    (1,1448)              3.55515138E-06
    1449    (1,1449)              1.49492382E-05
    1450    (1,1450)              2.64394522E-05
    1451    (1,1451)              6.72793273E-05
    1452    (1,1452)              1.11187639E-04
    1453    (1,1453)              7.25317392E-06
    1454    (1,1454)              2.88218435E-06
    1455    (1,1455)              3.93941592E-06
[...]
   39636    (1,39636)             0.34708576    
   39637    (1,39637)             0.37509720    
   39638    (1,39638)             0.39227715    
   39639    (1,39639)             0.31915834    
   39640    (1,39640)             0.36517434    
   39641    (1,39641)             0.36682315    
   39642    (1,39642)             0.44087775    
   39643    (1,39643)             0.34947724    
   39644    (1,39644)             0.38330636    
   39645    (1,39645)             0.45155094    
   39646    (1,39646)             0.37945404    
   39647    (1,39647)             0.31340388    
   39648    (1,39648)             0.43126421    
   39649    (1,39649)             0.47216890    
   39650    (1,39650)             0.30153697    
   39651    (1,39651)             0.50089704    
   39652    (1,39652)             0.40167274    
   39653    (1,39653)             0.52782771    
   39654    (1,39654)             0.49169652    
   39655    (1,39655)             0.52603619    
   39656    (1,39656)             0.43936594    
   39657    (1,39657)             0.36009682    
   39658    (1,39658)             0.29874060    
   39659    (1,39659)             0.35286671    
   39660    (1,39660)             0.45024035    
   39661    (1,39661)             0.37135340    
   39662    (1,39662)             0.48009793    
   39663    (1,39663)             0.27639494    
   39664    (1,39664)             0.32439295    
   39665    (1,39665)             0.32991181    
   39666    (1,39666)             0.44521448    
   39667    (1,39667)             0.52439136    
   39668    (1,39668)             0.44676227    
   39669    (1,39669)             0.39989600    
   39670    (1,39670)             0.47134037    
   39671    (1,39671)             0.35577279    
   39672    (1,39672)             0.29892862    
   39673    (1,39673)             0.24225118    
   39674    (1,39674)             0.35045707    
   39675    (1,39675)             0.35548342    
   39676    (1,39676)             0.38997915    
   39677    (1,39677)             0.17508739    
   39678    (1,39678)             0.38253066    
   39679    (1,39679)             0.49463143    
   39680    (1,39680)             0.27500572    
   39681    (1,39681)             0.47602933    
   39682    (1,39682)             0.39200225    
   39683    (1,39683)             0.26242579    
   39684    (1,39684)             0.29665620    
   39685    (1,39685)             0.36937867    
   39686    (1,39686)             0.49754291    
   39687    (1,39687)             0.33083261    
   39688    (1,39688)             0.41961921    
   39689    (1,39689)             0.55984197    
   39690    (1,39690)             0.51600095    
   39691    (1,39691)             0.40388006    
   39692    (1,39692)             0.59483525    
   39693    (1,39693)             0.51356399    
   39694    (1,39694)             0.28851877    
   39695    (1,39695)             0.38191950    
   39696    (1,39696)             0.38242282    
   39697    (1,39697)             0.37587386    
   39698    (1,39698)             0.33345310    
   39699    (1,39699)             0.48963965    
   39700    (1,39700)             0.35902332    
   39701    (1,39701)             0.30629465    
   39702    (1,39702)             0.49648321    
   39703    (1,39703)             0.34082605    
   39704    (1,39704)             0.38005894    
   39705    (1,39705)             0.35939909    
   39706    (1,39706)             0.32801116    
   39707    (1,39707)             0.28442864    
   39708    (1,39708)             0.32361932    
   39709    (1,39709)             0.45661482    
   39710    (1,39710)             0.36614957    
   39711    (1,39711)             0.36818636    
   39712    (1,39712)             0.35816224    
   39713    (1,39713)             0.44644844    
   39714    (1,39714)             0.45565720    
   39715    (1,39715)             0.30726930    
   39716    (1,39716)             0.31098850    
   39717    (1,39717)             0.40743993    
   39718    (1,39718)             0.16253146    
   39719    (1,39719)             0.42676743    
   39720    (1,39720)             0.36868832    
   39721    (1,39721)             0.15090389    
   39722    (1,39722)             0.31684524    
   39723    (1,39723)             0.39678964    
   39724    (1,39724)             0.53961039    
   39725    (1,39725)             0.41908097    
   39726    (1,39726)             0.44894920    
   39727    (1,39727)             0.39490342    
   39728    (1,39728)             0.43011574    
   39729    (1,39729)             0.32919192    
   39730    (1,39730)             0.39078634    
   39731    (1,39731)             0.43218825    
   39732    (1,39732)             0.37247586    
   39733    (1,39733)             0.45782281    
   39734    (1,39734)             0.44072887    
   39735    (1,39735)             0.45811333    
   39736    (1,39736)             0.44133446    
   39737    (1,39737)             0.37012003    
   39738    (1,39738)             0.48878455    
   39739    (1,39739)             0.30114692    
   39740    (1,39740)             0.43077134    
   39741    (1,39741)             0.59173178    
   39742    (1,39742)             0.52546537    
   39743    (1,39743)             0.39497560    
   39744    (1,39744)             0.29367919    
   39745    (1,39745)             0.50994602    
   39746    (1,39746)             0.51671118    
   39747    (1,39747)             0.46355780    
   39748    (1,39748)             0.43475060    
   39749    (1,39749)             0.58491504    
   39750    (1,39750)             0.53130031    
   39751    (1,39751)             0.49208789    
   39752    (1,39752)             0.45867591    
   39753    (1,39753)             0.37486030    
   39754    (1,39754)             0.37087140    
   39755    (1,39755)             0.51484377    
   39756    (1,39756)             0.51013600    
   39757    (1,39757)             0.50155050    
   39758    (1,39758)             0.54771807    
   39759    (1,39759)             0.31975940    
   39760    (1,39760)             0.36339928    
   39761    (1,39761)             0.37313003    
   39762    (1,39762)             0.45528702    
   39763    (1,39763)             0.42593863    
   39764    (1,39764)             0.37834978    
   39765    (1,39765)             0.34861400    
   39766    (1,39766)             0.49988011    
   39767    (1,39767)             0.41090766    
   39768    (1,39768)             0.42255676    
   39769    (1,39769)             0.45275329    
   39770    (1,39770)             0.42714454    
   39771    (1,39771)             0.42619259    
   39772    (1,39772)             0.39793191    
   39773    (1,39773)             0.31209407    
   39774    (1,39774)             0.48501827    
   39775    (1,39775)             0.53764171    
   39776    (1,39776)             0.42742147    
   39777    (1,39777)             0.38205752    
   39778    (1,39778)             0.48479836    
   39779    (1,39779)             0.47924796    
   39780    (1,39780)             0.44037649    
   39781    (1,39781)             0.32854065    
   39782    (1,39782)             0.41658918    
   39783    (1,39783)             0.40026788    
   39784    (1,39784)             0.45434707    
   39785    (1,39785)             0.34371693    
   39786    (1,39786)             0.36582967    
   39787    (1,39787)             0.39743494    
   39788    (1,39788)             0.39048287    
   39789    (1,39789)             0.37663499    
   39790    (1,39790)             0.43133129    
   39791    (1,39791)             0.41693963    
   39792    (1,39792)             0.41542460    
   39793    (1,39793)             0.44416551    
   39794    (1,39794)             0.52652870    
   39795    (1,39795)             0.38087549    
   39796    (1,39796)             0.43353421    
   39797    (1,39797)             0.47406808    
   39798    (1,39798)             0.31062973    
   39799    (1,39799)             0.43212164    
   39800    (1,39800)             0.36565734    
   39801    (1,39801)             0.39680340    
   39802    (1,39802)             0.46059828    
   39803    (1,39803)             0.32505546    
   39804    (1,39804)             0.38301430    
   39805    (1,39805)             0.39784637    
   39806    (1,39806)             0.43435909    
   39807    (1,39807)             0.41682955    
   39808    (1,39808)             0.32637589    
   39809    (1,39809)             0.37384410    
   39810    (1,39810)             0.55534615    
   39811    (1,39811)             0.34287908    
   39812    (1,39812)             0.35418798    
   39813    (1,39813)             0.43925887    
   39814    (1,39814)             0.35900975    
   39815    (1,39815)             0.34553846    
   39816    (1,39816)             0.57744067    
   39817    (1,39817)             0.42968052    
   39818    (1,39818)             0.42800465    
   39819    (1,39819)             0.38809817    
   39820    (1,39820)             0.29022529    
   39821    (1,39821)             0.34762192    
   39822    (1,39822)             0.48267192    
   39823    (1,39823)             0.37559312    
   39824    (1,39824)             0.17544428    
   39825    (1,39825)             0.38599385    
   39826    (1,39826)             0.46309248    
   39827    (1,39827)             0.36746165    
   39828    (1,39828)             0.32326770    
   39829    (1,39829)             0.42405127    
   39830    (1,39830)             0.43683741    
   39831    (1,39831)             0.37168869    
   39832    (1,39832)             0.39798402    
   39833    (1,39833)             0.39814431    
   39834    (1,39834)             0.33731673    
   39835    (1,39835)             0.45758098    
   39836    (1,39836)             0.42049795    
   39837    (1,39837)             0.46413620    
   39838    (1,39838)             0.32393868    
   39839    (1,39839)             0.37050160    
   39840    (1,39840)             0.38792899    
   39841    (1,39841)             0.21568438    
   39842    (1,39842)             0.36707326    
   39843    (1,39843)             0.40283570    
   39844    (1,39844)             0.40835631    
   39845    (1,39845)             0.32115761    
   39846    (1,39846)             0.50926039    
   39847    (1,39847)             0.55549073    
   39848    (1,39848)             0.38824327    
   39849    (1,39849)             0.34035258    
   39850    (1,39850)             0.24161676    
   39851    (1,39851)             0.47757878    
   39852    (1,39852)             0.45730220    
   39853    (1,39853)             0.42450322    
   39854    (1,39854)             0.32394087    
   39855    (1,39855)             0.37221974    
   39856    (1,39856)             0.51384788    
   39857    (1,39857)             0.45198546    
   39858    (1,39858)             0.40501161    
   39859    (1,39859)             0.54350644    
   39860    (1,39860)             0.48959616    
   39861    (1,39861)             0.54710317    
   39862    (1,39862)             0.50572873    
   39863    (1,39863)             0.45604439    
   39864    (1,39864)             0.45568234    
   39865    (1,39865)             0.32147757    
   39866    (1,39866)             0.31879096    
   39867    (1,39867)             0.31068548    
   39868    (1,39868)             0.33068261    
   39869    (1,39869)             0.50063690    
   39870    (1,39870)             0.35799654    
   39871    (1,39871)             0.45626141    
   39872    (1,39872)             0.36793125    
   39873    (1,39873)             0.51729967    
   39874    (1,39874)             0.38359840    
   39875    (1,39875)             0.42377831    
   39876    (1,39876)             0.42001582    
   39877    (1,39877)             0.37254143    
   39878    (1,39878)             0.37311665    
   39879    (1,39879)             0.42536475    
   39880    (1,39880)             0.51092127    
   39881    (1,39881)             0.47182695    
   39882    (1,39882)             0.43352965    
   39883    (1,39883)             0.40347272    
   39884    (1,39884)             0.43079128    
   39885    (1,39885)             0.36432865    
   39886    (1,39886)             0.40952881    
   39887    (1,39887)             0.49150089    
   39888    (1,39888)             0.49778720    
   39889    (1,39889)             0.45661317    
   39890    (1,39890)             0.39115101    
   39891    (1,39891)             0.44892683    
   39892    (1,39892)             0.52189345    
   39893    (1,39893)             0.51357159    
   39894    (1,39894)             0.45353841    
   39895    (1,39895)             0.40182673    
   39896    (1,39896)             0.48098321    
   39897    (1,39897)             0.21878209    
   39898    (1,39898)             0.44292484    
   39899    (1,39899)             0.40201094    
   39900    (1,39900)             0.51315522    
   39901    (1,39901)             0.58444117    
   39902    (1,39902)             0.33044992    
   39903    (1,39903)             0.38166046    
   39904    (1,39904)             0.24488593    
   39905    (1,39905)             0.57767659    
   39906    (1,39906)             0.19743990    
   39907    (1,39907)             0.38130306    
   39908    (1,39908)             0.55033995    
   39909    (1,39909)             0.24482269    
   39910    (1,39910)             0.58992050    
   39911    (1,39911)             0.46698344    
   39912    (1,39912)             0.22008325    
   39913    (1,39913)             0.37189779    
   39914    (1,39914)             0.46658205    
   39915    (1,39915)             0.21212241    
   39916    (1,39916)             0.38028781    
   39917    (1,39917)             0.18622519    
   39918    (1,39918)             0.38483233    
   39919    (1,39919)             0.39772548    
   39920    (1,39920)             0.50305521    
   39921    (1,39921)             0.45720308    
   39922    (1,39922)             0.36883998    
   39923    (1,39923)             0.49933163    
   39924    (1,39924)             0.38004771    
   39925    (1,39925)             0.33335115    
   39926    (1,39926)             0.45045264    
   39927    (1,39927)             0.44326874    
   39928    (1,39928)             0.46518825    
   39929    (1,39929)             0.42147997    
   39930    (1,39930)             0.44183941    
   39931    (1,39931)             0.44112814    
   39932    (1,39932)             0.39497888    
   39933    (1,39933)             0.32289956    
   39934    (1,39934)             0.41552638    
   39935    (1,39935)             0.36096156    
   39936    (1,39936)             0.30630568    
   39937    (1,39937)             0.57516768    
   39938    (1,39938)             0.37543909    
   39939    (1,39939)             0.48399253    
   39940    (1,39940)             0.40837886    
   39941    (1,39941)             0.42658234    
   39942    (1,39942)             0.48203354    
   39943    (1,39943)             0.42792492    
   39944    (1,39944)             0.55974925    
   39945    (1,39945)             0.45054363    
   39946    (1,39946)             0.45762055    
   39947    (1,39947)             0.43074451    
   39948    (1,39948)             0.29305146    
   39949    (1,39949)             0.39050005    
   39950    (1,39950)             0.46212716    
   39951    (1,39951)             0.44942418    
   39952    (1,39952)             0.46373473    
   39953    (1,39953)             0.40114727    
   39954    (1,39954)             0.52978251    
   39955    (1,39955)             0.56488743    
   39956    (1,39956)             0.39960105    
   39957    (1,39957)             0.46918857    
   39958    (1,39958)             0.58525053    
   39959    (1,39959)             0.18393404    
   39960    (1,39960)             0.41345851    
   39961    (1,39961)             0.50973811    
   39962    (1,39962)             0.54705859    
   39963    (1,39963)             0.42743150    
   39964    (1,39964)             0.43121072    
   39965    (1,39965)             0.26581557    
   39966    (1,39966)             0.45242611    
   39967    (1,39967)             0.41326697    
   39968    (1,39968)             0.24921164    
   39969    (1,39969)             0.46492555    
   39970    (1,39970)             0.39751605    
   39971    (1,39971)             0.38033388    
   39972    (1,39972)             0.37117692    
   39973    (1,39973)             0.49528521    
   39974    (1,39974)             0.38746677    
   39975    (1,39975)             0.40561341    
   39976    (1,39976)             0.37369026    
   39977    (1,39977)             0.16799870    
   39978    (1,39978)             0.39850160    
   39979    (1,39979)             0.36661889    
   39980    (1,39980)             0.41950030    
   39981    (1,39981)             0.38712062    
   39982    (1,39982)             0.39464176    
   39983    (1,39983)             0.41615998    
   39984    (1,39984)             0.34584710    
   39985    (1,39985)             0.31002337    
   39986    (1,39986)             0.53193701    
   39987    (1,39987)             0.49017578    
   39988    (1,39988)             0.35767133    
   39989    (1,39989)             0.38749628    
   39990    (1,39990)             0.31616669    
   39991    (1,39991)             0.54328221    
   39992    (1,39992)             0.33857520    
 -----------------------------------------------




 HEAD WILL BE SAVED ON UNIT 1018 AT END OF TIME STEP    1, STRESS PERIOD    1


  VOLUME BUDGET FOR ENTIRE MODEL AT END OF TIME STEP    1, STRESS PERIOD   1
  ---------------------------------------------------------------------------------------------------

     CUMULATIVE VOLUME      L**3       RATES FOR THIS TIME STEP      L**3/T          PACKAGE NAME    
     ------------------                 ------------------------                     ----------------

           IN:                                      IN:
           ---                                      ---
                 WEL =           0.0000                   WEL =           0.0000     WELL_PACKAGE                     
                 RCH =         559.1843                   RCH =         559.1843     RCH                              
                 EVT =           0.0000                   EVT =           0.0000     EVT                              
                 CHD =       9.3764E-05                   CHD =       9.3764E-05     CHD                              

            TOTAL IN =         559.1844              TOTAL IN =         559.1844

          OUT:                                     OUT:
          ----                                     ----
                 WEL =          64.5597                   WEL =          64.5597     WELL_PACKAGE                     
                 RCH =           0.0000                   RCH =           0.0000     RCH                              
                 EVT =           8.1521                   EVT =           8.1521     EVT                              
                 CHD =         486.4818                   CHD =         486.4818     CHD                              

           TOTAL OUT =         559.1936             TOTAL OUT =         559.1936

            IN - OUT =      -9.2207E-03              IN - OUT =      -9.2207E-03

 PERCENT DISCREPANCY =          -0.00     PERCENT DISCREPANCY =          -0.00




         TIME SUMMARY AT END OF TIME STEP    1 IN STRESS PERIOD    1
                    SECONDS     MINUTES      HOURS       DAYS        YEARS
                    -----------------------------------------------------------
   TIME STEP LENGTH  1.0000     1.66667E-02 2.77778E-04 1.15741E-05 3.16881E-08
 STRESS PERIOD TIME  1.0000     1.66667E-02 2.77778E-04 1.15741E-05 3.16881E-08
         TOTAL TIME  1.0000     1.66667E-02 2.77778E-04 1.15741E-05 3.16881E-08


end timestep

