                                   MODFLOW 6
                U.S. GEOLOGICAL SURVEY MODULAR HYDROLOGIC MODEL
                            VERSION 6.6.0 12/20/2024

   MODFLOW 6 compiled Dec 31 2024 17:10:16 with Intel(R) Fortran Intel(R) 64
   Compiler Classic for applications running on Intel(R) 64, Version 2021.7.0
                             Build 20220726_000000

This software has been approved for release by the U.S. Geological 
Survey (USGS). Although the software has been subjected to rigorous 
review, the USGS reserves the right to update the software as needed 
pursuant to further analysis and review. No warranty, expressed or 
implied, is made by the USGS or the U.S. Government as to the 
functionality of the software and related material nor shall the 
fact of release constitute any such warranty. Furthermore, the 
software is released on condition that neither the USGS nor the U.S. 
Government shall be held liable for any damages resulting from its 
authorized or unauthorized use. Also refer to the USGS Water 
Resources Software User Rights Notice for complete use, copyright, 
and distribution information.


As a work of the United States Government, this USGS product is 
in the public domain within the United States. You can copy, 
modify, distribute, and perform the work, even for commercial 
purposes, all without asking permission. Additionally, USGS 
waives copyright and related rights in the work worldwide 
through CC0 1.0 Universal Public Domain Dedication 
(https://creativecommons.org/publicdomain/zero/1.0/).

The following GNU Lesser General Public License (LGPL) libraries
are used in this USGS product:

    SPARSKIT version 2.0
      ilut, luson, and qsplit 
      (https://www-users.cse.umn.edu/~saad/software/SPARSKIT/)

    RCM - Reverse Cuthill McKee Ordering
      (https://people.math.sc.edu/Burkardt/f_src/rcm/rcm.html)

    BLAS - Basic Linear Algebra Subprograms Level 1
      (https://people.math.sc.edu/Burkardt/f_src/blas1_d/blas1_d.html)

    SPARSEKIT - Sparse Matrix Utility Package
      amux, dperm, dvperm, rperm, and cperm
      (https://people.sc.fsu.edu/~jburkardt/f77_src/sparsekit/sparsekit.html)

The following BSD-3 License libraries are used in this USGS product:

    Modern Fortran DAG Library
      Copyright (c) 2018, Jacob Williams
      All rights reserved.
      (https://github.com/jacobwilliams/daglib)

MODFLOW 6 compiler options: /O2 /heap-arrays:0 /fpe:0 /traceback /nologo /fpp
/c /module:win64\mod_mf6\ /object:win64\obj_mf6\

System command used to initiate simulation:
C:\Users\sebas\AppData\Local\flopy\bin\mf6.exe

MODFLOW was compiled using uniform precision.

Real Variables
  KIND: 8
  TINY (smallest non-zero value):    2.225074-308
  HUGE (largest value):    1.797693+308
  PRECISION: 15
  SIZE IN BITS: 64

Integer Variables
  KIND: 4
  HUGE (largest value): 2147483647
  SIZE IN BITS: 32

Long Integer Variables
  KIND: 8
  HUGE (largest value): 9223372036854775807
  SIZE IN BITS: 64

Logical Variables
  KIND: 4
  SIZE IN BITS: 32
 

 OPENED mfsim.nam
 FILE TYPE:NAM6               UNIT 1001   STATUS:OLD                 
 FORMAT:FORMATTED              ACCESS:SEQUENTIAL          
 ACTION:READ                

 # File generated by Flopy version 3.9.1 on 01/31/2026 at 08:50:39.

 OPENED DISU_model.tdis
 FILE TYPE:TDIS6              UNIT 1002   STATUS:OLD                 
 FORMAT:FORMATTED              ACCESS:SEQUENTIAL          
 ACTION:READ                

 # File generated by Flopy version 3.9.1 on 01/31/2026 at 08:50:39.

 OPENED DISU_model.nam
 FILE TYPE:GWF6               UNIT 1003   STATUS:OLD                 
 FORMAT:FORMATTED              ACCESS:SEQUENTIAL          
 ACTION:READ                

 # File generated by Flopy version 3.9.1 on 01/31/2026 at 08:50:39.

 OPENED DISU_model.disu
 FILE TYPE:DISU6              UNIT 1004   STATUS:OLD                 
 FORMAT:FORMATTED              ACCESS:SEQUENTIAL          
 ACTION:READ                

 # File generated by Flopy version 3.9.1 on 01/31/2026 at 08:50:39.

 OPENED DISU_model.npf
 FILE TYPE:NPF6               UNIT 1005   STATUS:OLD                 
 FORMAT:FORMATTED              ACCESS:SEQUENTIAL          
 ACTION:READ                

 # File generated by Flopy version 3.9.1 on 01/31/2026 at 08:50:57.

 OPENED DISU_model.ic
 FILE TYPE:IC6                UNIT 1006   STATUS:OLD                 
 FORMAT:FORMATTED              ACCESS:SEQUENTIAL          
 ACTION:READ                

 # File generated by Flopy version 3.9.1 on 01/31/2026 at 08:50:57.

 OPENED DISU_model.oc
 FILE TYPE:OC6       UNIT 1007   STATUS:OLD                 
 FORMAT:FORMATTED              ACCESS:SEQUENTIAL          
 ACTION:READ                


 OPENED DISU_model.wel
 FILE TYPE:WEL6               UNIT 1008   STATUS:OLD                 
 FORMAT:FORMATTED              ACCESS:SEQUENTIAL          
 ACTION:READ                

 # File generated by Flopy version 3.9.1 on 01/31/2026 at 08:50:58.

 OPENED quadtree_caseD.rch
 FILE TYPE:RCH6               UNIT 1010   STATUS:OLD                 
 FORMAT:FORMATTED              ACCESS:SEQUENTIAL          
 ACTION:READ                

 # File generated by Flopy version 3.9.1 on 01/31/2026 at 08:50:59.

 OPENED DISU_model.evt
 FILE TYPE:EVT6               UNIT 1012   STATUS:OLD                 
 FORMAT:FORMATTED              ACCESS:SEQUENTIAL          
 ACTION:READ                

 # File generated by Flopy version 3.9.1 on 01/31/2026 at 08:50:59.

 OPENED DISU_model.chd
 FILE TYPE:CHD6               UNIT 1013   STATUS:OLD                 
 FORMAT:FORMATTED              ACCESS:SEQUENTIAL          
 ACTION:READ                

 # File generated by Flopy version 3.9.1 on 01/31/2026 at 08:50:57.

 READING SIMULATION OPTIONS
    MAXIMUM NUMBER OF ERRORS THAT WILL BE STORED IS 1000
 END OF SIMULATION OPTIONS

 READING SIMULATION TIMING

 TDIS -- TEMPORAL DISCRETIZATION PACKAGE,
 VERSION 1 : 11/13/2014 - INPUT READ FROM MEMPATH: __INPUT__/SIM/TDIS                                
 PROCESSING TDIS OPTIONS
    SIMULATION TIME UNIT IS SECONDS
 END OF TDIS OPTIONS
 PROCESSING TDIS DIMENSIONS
    1 STRESS PERIOD(S) IN SIMULATION
 END OF TDIS DIMENSIONS
 PROCESSING TDIS PERIODDATA


 STRESS PERIOD     LENGTH       TIME STEPS     MULTIPLIER FOR DELT
 ----------------------------------------------------------------------------
        1         1.000000          1                    1.000
 END OF TDIS PERIODDATA
 END OF SIMULATION TIMING

 READING SIMULATION MODELS
    GWF6 model 1 will be created
 END OF SIMULATION MODELS

 READING SIMULATION EXCHANGES
 END OF SIMULATION EXCHANGES

 READING SOLUTIONGROUP

 Creating solution: SLN_1           

 OPENED DISU_model.ims
 FILE TYPE:IMS   UNIT 1015   STATUS:OLD                 
 FORMAT:FORMATTED              ACCESS:SEQUENTIAL          
 ACTION:READ                

 END OF SOLUTIONGROUP

PROCESSING MODEL CONNECTIONS

 IMS -- ITERATIVE MODEL SOLUTION PACKAGE, VERSION 6, 4/28/2017
         INPUT READ FROM UNIT 1015
 # File generated by Flopy version 3.9.1 on 01/31/2026 at 08:50:39.

 PROCESSING IMS OPTIONS
 COMPLEX OPTION:
 DEFAULT SOLVER INPUT VALUES REFLECT STRONGLY NONLINEAR MODEL
 END OF IMS OPTIONS

 PROCESSING IMS NONLINEAR
 END OF IMS NONLINEAR DATA
 **UNDER-RELAXATION WILL BE USED***
 

 PROCESSING LINEAR DATA
 END OF LINEAR DATA
 ***IMS LINEAR SOLVER WILL BE USED***

 IMSLINEAR -- UNSTRUCTURED LINEAR SOLUTION PACKAGE, VERSION 8, 04/28/2017
 An asymmetric matrix will be solved

 OUTER ITERATION CONVERGENCE CRITERION    (DVCLOSE) =    0.100000E-02
 MAXIMUM NUMBER OF OUTER ITERATIONS        (MXITER) = 300
 SOLVER PRINTOUT INDEX                     (IPRIMS) = 1
 NONLINEAR ITERATION METHOD            (NONLINMETH) = 3
 LINEAR SOLUTION METHOD                   (LINMETH) = 1
 UNDER-RELAXATION WEIGHT REDUCTION FACTOR   (THETA) =    0.800000E+00
 UNDER-RELAXATION WEIGHT INCREASE INCREMENT (KAPPA) =    0.100000E-03
 UNDER-RELAXATION PREVIOUS HISTORY FACTOR   (GAMMA) =    0.000000E+00
 UNDER-RELAXATION MOMENTUM TERM         (AMOMENTUM) =    0.000000E+00
 MAXIMUM NUMBER OF BACKTRACKS            (NUMTRACK) = 20
 BACKTRACKING TOLERANCE FACTOR               (BTOL) =    0.105000E+01
 BACKTRACKING REDUCTION FACTOR             (BREDUC) =    0.100000E+00
 BACKTRACKING RESIDUAL LIMIT              (RES_LIM) =    0.200000E-02

       SOLUTION BY THE BICONJUGATE-GRADIENT STABILIZED METHOD
 ------------------------------------------------------------------
 MAXIMUM OF 300 CALLS OF SOLUTION ROUTINE
 MAXIMUM OF 1200 INTERNAL ITERATIONS PER CALL TO SOLUTION ROUTINE
 LINEAR ACCELERATION METHOD            = BCGS      
 MATRIX PRECONDITIONING TYPE           = MOD. INCOMPLETE LUT 
 MATRIX SCALING APPROACH               = NO SCALING          
 MATRIX REORDERING APPROACH            = ORIGINAL ORDERING        
 NUMBER OF ORTHOGONALIZATIONS          = 2
 HEAD CHANGE CRITERION FOR CLOSURE     =    0.10000E-05
 RESIDUAL CHANGE CRITERION FOR CLOSURE =    0.10000E+00
 RESIDUAL CONVERGENCE OPTION           = 0
 RESIDUAL CONVERGENCE NORM             = INFINITY NORM   
 RELAXATION FACTOR                     =    0.92000E+00
 NUMBER OF LEVELS                      =              5
 DROP TOLERANCE                        =    0.10000E-03


 
    Solving:  Stress period:     1    Time step:     1
 
1
 STRESS PERIOD NO. 1, LENGTH =   1.000000    
 ------------------------------------------
 NUMBER OF TIME STEPS = 1
 MULTIPLIER FOR DELT =     1.000
 INITIAL TIME STEP SIZE =   1.000000    

 SLN_1 OUTER ITERATION SUMMARY
 ----------------------------------------------------------------------------------------------------------------------------------------------------------------
                                OUTER      INNER  BACKTRACK  BACKTRACK        INCOMING        OUTGOING                    STEP   MAXIMUM CHANGE MODEL-(CELLID) OR
 OUTER ITERATION STEP       ITERATION  ITERATION       FLAG ITERATIONS        RESIDUAL        RESIDUAL  MAXIMUM CHANGE SUCCESS             MODEL-PACKAGE-(NUMBER)
 ----------------------------------------------------------------------------------------------------------------------------------------------------------------
 Backtracking                       1                     0          0       6576805.2       6576805.2                       *                                   
 Model                              1        150                                                             253.20501                              1_GWF-(69701)
 Backtracking                       2                     0          0       3.6196589       3.6196589                       *                                   
 Model                              2        102                                                           -0.38034090                              1_GWF-(84301)
 Backtracking                       3                     4          2       231.81837       4.2733609                                                           
 Model                              3         95                                                           -0.37772526                              1_GWF-(84301)
 Backtracking                       4                     4          2       229.44913       5.8086301                                                           
 Model                              4        101                                                           -0.37466249                              1_GWF-(84301)
 Backtracking                       5                     4          2       227.38673       7.6776968                                                           
 Model                              5         99                                                           -0.37150955                              1_GWF-(84301)
 Backtracking                       6                     4          2       225.36419       9.6601118                                                           
 Model                              6         91                                                           -0.36869889                              1_GWF-(84301)
 Backtracking                       7                     4          2       223.57356       11.677163                                                           
 Model                              7         93                                                           -0.36572335                              1_GWF-(84301)
 Backtracking                       8                     4          2       221.64687       13.693965                                                           
 Model                              8         76                                                           -0.36097863                              1_GWF-(84301)
 Backtracking                       9                     4          2       218.34801       15.681203                                                           
 Model                              9         91                                                           -0.35985345                              1_GWF-(84301)
 Backtracking                      10                     4          2       217.87745       17.658364                                                           
 Model                             10         94                                                           -0.35693058                              1_GWF-(84301)
 Backtracking                      11                     4          2       216.00462       19.607091                                                           
 Model                             11         91                                                           -0.35412710                              1_GWF-(84301)
 Backtracking                      12                     4          2       214.19080       21.525280                                                           
 Model                             12         90                                                           -0.35126775                              1_GWF-(84301)
 Backtracking                      13                     4          2       212.35228       23.411076                                                           
 Model                             13         95                                                           -0.34838034                              1_GWF-(84301)
 Backtracking                      14                     4          2       210.49879       25.263367                                                           
 Model                             14         78                                                           -0.34445860                              1_GWF-(84301)
 Backtracking                      15                     4          2       207.66939       27.071898                                                           
 Model                             15         94                                                           -0.34287126                              1_GWF-(84301)
 Backtracking                      16                     4          2       206.93941       28.857301                                                           
 Model                             16         93                                                           -0.34017727                              1_GWF-(84301)
 Backtracking                      17                     4          2       205.21789       30.609503                                                           
 Model                             17         87                                                           -0.33735797                              1_GWF-(84301)
 Backtracking                      18                     4          2       203.47228       32.328241                                                           
 Model                             18         93                                                           -0.33465519                              1_GWF-(84301)
 Backtracking                      19                     4          2       201.69900       34.013305                                                           
 Model                             19         82                                                           -0.33164898                              1_GWF-(84301)
 Backtracking                      20                     1          2       199.67406       35.662313                                                           
 Model                             20         90                                                           -0.32939940                              1_GWF-(84301)
 Backtracking                      21                     1          2       198.34182       37.282358                                                           
 Model                             21        104                                                           -0.32664879                              1_GWF-(84301)
 Backtracking                      22                     1          2       196.56422       38.869163                                                           
 Model                             22        100                                                           -0.32402605                              1_GWF-(84301)
 Backtracking                      23                     1          2       194.90933       40.424174                                                           
 Model                             23         82                                                           -0.32140880                              1_GWF-(84301)
 Backtracking                      24                     1          2       193.21441       41.947225                                                           
 Model                             24         96                                                           -0.31884891                              1_GWF-(84301)
 Backtracking                      25                     1          2       191.59853       43.439351                                                           
 Model                             25         92                                                           -0.31632636                              1_GWF-(84301)
 Backtracking                      26                     1          2       189.95041       44.900479                                                           
 Model                             26         85                                                           -0.31380251                              1_GWF-(84301)
 Backtracking                      27                     1          2       188.45245       46.332367                                                           
 Model                             27         85                                                           -0.31136462                              1_GWF-(84301)
 Backtracking                      28                     1          2       186.83268       47.734052                                                           
 Model                             28         88                                                           -0.30887154                              1_GWF-(84301)
 Backtracking                      29                     1          2       185.24656       49.106135                                                           
 Model                             29         96                                                           -0.30624728                              1_GWF-(84301)
 Backtracking                      30                     1          2       183.56085       50.447887                                                           
 Model                             30         93                                                           -0.30379258                              1_GWF-(84301)
 Backtracking                      31                     1          2       182.00711       51.760902                                                           
 Model                             31         75                                                           -0.29977541                              1_GWF-(84301)
 Backtracking                      32                     1          2       179.22756       53.033144                                                           
 Model                             32         85                                                           -0.29914482                              1_GWF-(84301)
 Backtracking                      33                     1          2       179.07767       54.291379                                                           
 Model                             33         92                                                           -0.29653701                              1_GWF-(84301)
 Backtracking                      34                     1          2       177.37240       55.520141                                                           
 Model                             34         93                                                           -0.29415228                              1_GWF-(84301)
 Backtracking                      35                     1          2       175.86775       56.721712                                                           
 Model                             35         85                                                           -0.29203838                              1_GWF-(84301)
 Backtracking                      36                     1          2       174.55619       57.898278                                                           
 Model                             36         95                                                           -0.28945281                              1_GWF-(84301)
 Backtracking                      37                     1          2       172.86365       59.046275                                                           
 Model                             37         82                                                           -0.28688699                              1_GWF-(84301)
 Backtracking                      38                     1          2       171.19047       60.166170                                                           
 Model                             38         88                                                           -0.28492811                              1_GWF-(84301)
 Backtracking                      39                     1          2       170.00418       61.263098                                                           
 Model                             39         96                                                           -0.28249860                              1_GWF-(84301)
 Backtracking                      40                     1          2       168.46928       62.333800                                                           
 Model                             40         91                                                           -0.28024376                              1_GWF-(84301)
 Backtracking                      41                     1          2       167.03910       63.379574                                                           
 Model                             41         94                                                           -0.27799211                              1_GWF-(84301)
 Backtracking                      42                     1          2       165.61381       64.400714                                                           
 Model                             42         93                                                           -0.27575596                              1_GWF-(84301)
 Backtracking                      43                     1          2       164.19554       65.397530                                                           
 Model                             43         93                                                           -0.27358350                              1_GWF-(84301)
 Backtracking                      44                     1          2       162.82290       66.370716                                                           
 Model                             44         95                                                           -0.27134034                              1_GWF-(84301)
 Backtracking                      45                     1          2       161.39669       67.319968                                                           
 Model                             45         93                                                           -0.26915799                              1_GWF-(84301)
 Backtracking                      46                     1          2       160.01935       68.246010                                                           
 Model                             46         96                                                           -0.26698703                              1_GWF-(84301)
 Backtracking                      47                     1          2       158.65514       69.149200                                                           
 Model                             47         89                                                           -0.26486488                              1_GWF-(84301)
 Backtracking                      48                     1          2       157.34742       70.030329                                                           
 Model                             48         98                                                           -0.26268847                              1_GWF-(84301)
 Backtracking                      49                     1          2       155.94913       70.888708                                                           
 Model                             49         74                                                           -0.25991131                              1_GWF-(84301)
 Backtracking                      50                     1          2       153.92773       71.718335                                                           
 Model                             50         94                                                           -0.25849723                              1_GWF-(84301)
 Backtracking                      51                     1          2       153.28948       72.533318                                                           
 Model                             51         87                                                           -0.25660291                              1_GWF-(84301)
 Backtracking                      52                     1          2       152.25055       73.329789                                                           
 Model                             52         94                                                           -0.25426382                              1_GWF-(84301)
 Backtracking                      53                     1          2       150.64039       74.102237                                                           
 Model                             53         78                                                           -0.25129118                              1_GWF-(84301)
 Backtracking                      54                     1          2       148.54351       74.846016                                                           
 Model                             54         94                                                           -0.25027501                              1_GWF-(84301)
 Backtracking                      55                     1          2       148.11360       75.578094                                                           
 Model                             55         97                                                           -0.24825832                              1_GWF-(84301)
 Backtracking                      56                     1          2       146.84326       76.290176                                                           
 Model                             56         93                                                           -0.24625187                              1_GWF-(84301)
 Backtracking                      57                     1          2       145.58570       76.982588                                                           
 Model                             57         86                                                           -0.24422551                              1_GWF-(84301)
 Backtracking                      58                     1          2       144.29611       77.655205                                                           
 Model                             58         90                                                           -0.24237954                              1_GWF-(84301)
 Backtracking                      59                     1          2       143.10739       78.309232                                                           
 Model                             59         90                                                           -0.24034643                              1_GWF-(84301)
 Backtracking                      60                     1          2       141.88529       78.944519                                                           
 Model                             60         90                                                           -0.23842467                              1_GWF-(84301)
 Backtracking                      61                     1          2       140.66755       79.561296                                                           
 Model                             61         98                                                           -0.23649939                              1_GWF-(84301)
 Backtracking                      62                     1          2       139.45996       80.159849                                                           
 Model                             62         88                                                           -0.23461026                              1_GWF-(84301)
 Backtracking                      63                     1          2       138.28007       80.740636                                                           
 Model                             63         95                                                           -0.23269277                              1_GWF-(84301)
 Backtracking                      64                     1          2       137.07949       81.303627                                                           
 Model                             64         90                                                           -0.23080179                              1_GWF-(84301)
 Backtracking                      65                     1          2       135.91095       81.849319                                                           
 Model                             65         95                                                           -0.22895339                              1_GWF-(84301)
 Backtracking                      66                     1          2       134.73928       82.377853                                                           
 Model                             66         74                                                           -0.22627971                              1_GWF-(84301)
 Backtracking                      67                     1          2       132.87029       82.882423                                                           
 Model                             67         89                                                           -0.22531781                              1_GWF-(84301)
 Backtracking                      68                     1          2       132.47765       83.378039                                                           
 Model                             68         94                                                           -0.22346435                              1_GWF-(84301)
 Backtracking                      69                     1          2       131.30462       83.856981                                                           
 Model                             69         90                                                           -0.22157155                              1_GWF-(84301)
 Backtracking                      70                     1          2       130.10531       84.319154                                                           
 Model                             70         85                                                           -0.22049538                              1_GWF-(84301)
 Backtracking                      71                     1          2       129.59046       84.771561                                                           
 Model                             71         87                                                           -0.21816923                              1_GWF-(84301)
 Backtracking                      72                     1          2       128.01005       85.203659                                                           
 Model                             72         96                                                           -0.21632904                              1_GWF-(84301)
 Backtracking                      73                     1          1       126.84577       89.365464                                                           
 Model                             73         76                                                           -0.19808487                              1_GWF-(84301)
 Backtracking                      74                     1          1       115.91389       92.018599                                                           
 Model                             74         90                                                           -0.18287056                              1_GWF-(84301)
 Backtracking                      75                     1          1       107.13452       93.529003                                                           
 Model                             75         75                                                           -0.16755206                              1_GWF-(84301)
 Backtracking                      76                     0          0       97.962744       97.962744                       *                                   
 Model                             76         64                                                       -3.26571344E-02                              1_GWF-(84301)
 Backtracking                      77                     0          0       19.242118       19.242118                       *                                   
 Model                             77         68                                                       -6.30718958E-03                              1_GWF-(84301)
 Backtracking                      78                     0          0       3.7595401       3.7595401                       *                                   
 Model                             78         53                                                       -1.42674865E-03                              1_GWF-(84301)
 Backtracking                      79                     0          0      0.85136400      0.85136400                       *                                   
 Model                             79         12                                                       -7.51895169E-05       *                      1_GWF-(81669)
 ----------------------------------------------------------------------------------------------------------------------------------------------------------------


 79 CALLS TO NUMERICAL SOLUTION IN TIME STEP 1 STRESS PERIOD 1
 7025 TOTAL ITERATIONS

 MEMORY MANAGER TOTAL STORAGE BY DATA TYPE, IN MEGABYTES
 -------------------------------
                    ALLOCATED   
 DATA TYPE           MEMORY     
 -------------------------------
 Character        1.04880000E-02
 Logical          4.80000000E-05
 Integer          40.411108     
 Real             97.611024     
 -------------------------------
 Total            138.03267     
 Virtual          0.0000000     
 -------------------------------


 
 Run end date and time (yyyy/mm/dd hh:mm:ss): 2026/01/31  8:51:43
 Elapsed run time: 43.177 Seconds
 Normal termination of simulation.
