                                   MODFLOW 6
                U.S. GEOLOGICAL SURVEY MODULAR HYDROLOGIC MODEL
                            VERSION 6.6.0 12/20/2024

   MODFLOW 6 compiled Dec 31 2024 17:10:16 with Intel(R) Fortran Intel(R) 64
   Compiler Classic for applications running on Intel(R) 64, Version 2021.7.0
                             Build 20220726_000000

This software has been approved for release by the U.S. Geological 
Survey (USGS). Although the software has been subjected to rigorous 
review, the USGS reserves the right to update the software as needed 
pursuant to further analysis and review. No warranty, expressed or 
implied, is made by the USGS or the U.S. Government as to the 
functionality of the software and related material nor shall the 
fact of release constitute any such warranty. Furthermore, the 
software is released on condition that neither the USGS nor the U.S. 
Government shall be held liable for any damages resulting from its 
authorized or unauthorized use. Also refer to the USGS Water 
Resources Software User Rights Notice for complete use, copyright, 
and distribution information.


As a work of the United States Government, this USGS product is 
in the public domain within the United States. You can copy, 
modify, distribute, and perform the work, even for commercial 
purposes, all without asking permission. Additionally, USGS 
waives copyright and related rights in the work worldwide 
through CC0 1.0 Universal Public Domain Dedication 
(https://creativecommons.org/publicdomain/zero/1.0/).

The following GNU Lesser General Public License (LGPL) libraries
are used in this USGS product:

    SPARSKIT version 2.0
      ilut, luson, and qsplit 
      (https://www-users.cse.umn.edu/~saad/software/SPARSKIT/)

    RCM - Reverse Cuthill McKee Ordering
      (https://people.math.sc.edu/Burkardt/f_src/rcm/rcm.html)

    BLAS - Basic Linear Algebra Subprograms Level 1
      (https://people.math.sc.edu/Burkardt/f_src/blas1_d/blas1_d.html)

    SPARSEKIT - Sparse Matrix Utility Package
      amux, dperm, dvperm, rperm, and cperm
      (https://people.sc.fsu.edu/~jburkardt/f77_src/sparsekit/sparsekit.html)

The following BSD-3 License libraries are used in this USGS product:

    Modern Fortran DAG Library
      Copyright (c) 2018, Jacob Williams
      All rights reserved.
      (https://github.com/jacobwilliams/daglib)

MODFLOW 6 compiler options: /O2 /heap-arrays:0 /fpe:0 /traceback /nologo /fpp
/c /module:win64\mod_mf6\ /object:win64\obj_mf6\

System command used to initiate simulation:
mf6

MODFLOW was compiled using uniform precision.

Real Variables
  KIND: 8
  TINY (smallest non-zero value):    2.225074-308
  HUGE (largest value):    1.797693+308
  PRECISION: 15
  SIZE IN BITS: 64

Integer Variables
  KIND: 4
  HUGE (largest value): 2147483647
  SIZE IN BITS: 32

Long Integer Variables
  KIND: 8
  HUGE (largest value): 9223372036854775807
  SIZE IN BITS: 64

Logical Variables
  KIND: 4
  SIZE IN BITS: 32
 

 OPENED mfsim.nam
 FILE TYPE:NAM6               UNIT 1001   STATUS:OLD                 
 FORMAT:FORMATTED              ACCESS:SEQUENTIAL          
 ACTION:READ                

 # File generated by Flopy version 3.9.1 on 01/21/2026 at 05:33:30.

 OPENED DISU_model.tdis
 FILE TYPE:TDIS6              UNIT 1002   STATUS:OLD                 
 FORMAT:FORMATTED              ACCESS:SEQUENTIAL          
 ACTION:READ                

 # File generated by Flopy version 3.9.1 on 01/21/2026 at 05:33:30.

 OPENED DISU_model.nam
 FILE TYPE:GWF6               UNIT 1003   STATUS:OLD                 
 FORMAT:FORMATTED              ACCESS:SEQUENTIAL          
 ACTION:READ                

 # File generated by Flopy version 3.9.1 on 01/21/2026 at 05:33:30.

 OPENED DISU_model.disu
 FILE TYPE:DISU6              UNIT 1004   STATUS:OLD                 
 FORMAT:FORMATTED              ACCESS:SEQUENTIAL          
 ACTION:READ                

 # File generated by Flopy version 3.9.1 on 01/21/2026 at 05:33:30.

 OPENED DISU_model.npf
 FILE TYPE:NPF6               UNIT 1005   STATUS:OLD                 
 FORMAT:FORMATTED              ACCESS:SEQUENTIAL          
 ACTION:READ                

 # File generated by Flopy version 3.9.1 on 01/21/2026 at 05:33:40.

 OPENED DISU_model.ic
 FILE TYPE:IC6                UNIT 1006   STATUS:OLD                 
 FORMAT:FORMATTED              ACCESS:SEQUENTIAL          
 ACTION:READ                

 # File generated by Flopy version 3.9.1 on 01/21/2026 at 05:33:39.

 OPENED DISU_model.oc
 FILE TYPE:OC6       UNIT 1007   STATUS:OLD                 
 FORMAT:FORMATTED              ACCESS:SEQUENTIAL          
 ACTION:READ                


 OPENED DISU_model.wel
 FILE TYPE:WEL6               UNIT 1008   STATUS:OLD                 
 FORMAT:FORMATTED              ACCESS:SEQUENTIAL          
 ACTION:READ                

 # File generated by Flopy version 3.9.1 on 01/21/2026 at 05:33:40.

 OPENED quadtree_caseC.rch
 FILE TYPE:RCH6               UNIT 1010   STATUS:OLD                 
 FORMAT:FORMATTED              ACCESS:SEQUENTIAL          
 ACTION:READ                

 # File generated by Flopy version 3.9.1 on 01/21/2026 at 05:33:40.

 OPENED DISU_model.evt
 FILE TYPE:EVT6               UNIT 1012   STATUS:OLD                 
 FORMAT:FORMATTED              ACCESS:SEQUENTIAL          
 ACTION:READ                

 # File generated by Flopy version 3.9.1 on 01/21/2026 at 05:33:40.

 OPENED DISU_model.chd
 FILE TYPE:CHD6               UNIT 1013   STATUS:OLD                 
 FORMAT:FORMATTED              ACCESS:SEQUENTIAL          
 ACTION:READ                

 # File generated by Flopy version 3.9.1 on 01/21/2026 at 05:33:40.

 READING SIMULATION OPTIONS
    MAXIMUM NUMBER OF ERRORS THAT WILL BE STORED IS 1000
 END OF SIMULATION OPTIONS

 READING SIMULATION TIMING

 TDIS -- TEMPORAL DISCRETIZATION PACKAGE,
 VERSION 1 : 11/13/2014 - INPUT READ FROM MEMPATH: __INPUT__/SIM/TDIS                                
 PROCESSING TDIS OPTIONS
    SIMULATION TIME UNIT IS SECONDS
 END OF TDIS OPTIONS
 PROCESSING TDIS DIMENSIONS
    1 STRESS PERIOD(S) IN SIMULATION
 END OF TDIS DIMENSIONS
 PROCESSING TDIS PERIODDATA


 STRESS PERIOD     LENGTH       TIME STEPS     MULTIPLIER FOR DELT
 ----------------------------------------------------------------------------
        1         1.000000          1                    1.000
 END OF TDIS PERIODDATA
 END OF SIMULATION TIMING

 READING SIMULATION MODELS
    GWF6 model 1 will be created
 END OF SIMULATION MODELS

 READING SIMULATION EXCHANGES
 END OF SIMULATION EXCHANGES

 READING SOLUTIONGROUP

 Creating solution: SLN_1           

 OPENED DISU_model.ims
 FILE TYPE:IMS   UNIT 1015   STATUS:OLD                 
 FORMAT:FORMATTED              ACCESS:SEQUENTIAL          
 ACTION:READ                

 END OF SOLUTIONGROUP

PROCESSING MODEL CONNECTIONS

 IMS -- ITERATIVE MODEL SOLUTION PACKAGE, VERSION 6, 4/28/2017
         INPUT READ FROM UNIT 1015
 # File generated by Flopy version 3.9.1 on 01/21/2026 at 05:33:30.

 PROCESSING IMS OPTIONS
 COMPLEX OPTION:
 DEFAULT SOLVER INPUT VALUES REFLECT STRONGLY NONLINEAR MODEL
 END OF IMS OPTIONS

 PROCESSING IMS NONLINEAR
 END OF IMS NONLINEAR DATA
 **UNDER-RELAXATION WILL BE USED***
 

 PROCESSING LINEAR DATA
 END OF LINEAR DATA
 ***IMS LINEAR SOLVER WILL BE USED***

 IMSLINEAR -- UNSTRUCTURED LINEAR SOLUTION PACKAGE, VERSION 8, 04/28/2017
 An asymmetric matrix will be solved

 OUTER ITERATION CONVERGENCE CRITERION    (DVCLOSE) =    0.100000E-02
 MAXIMUM NUMBER OF OUTER ITERATIONS        (MXITER) = 300
 SOLVER PRINTOUT INDEX                     (IPRIMS) = 1
 NONLINEAR ITERATION METHOD            (NONLINMETH) = 3
 LINEAR SOLUTION METHOD                   (LINMETH) = 1
 UNDER-RELAXATION WEIGHT REDUCTION FACTOR   (THETA) =    0.800000E+00
 UNDER-RELAXATION WEIGHT INCREASE INCREMENT (KAPPA) =    0.100000E-03
 UNDER-RELAXATION PREVIOUS HISTORY FACTOR   (GAMMA) =    0.000000E+00
 UNDER-RELAXATION MOMENTUM TERM         (AMOMENTUM) =    0.000000E+00
 MAXIMUM NUMBER OF BACKTRACKS            (NUMTRACK) = 20
 BACKTRACKING TOLERANCE FACTOR               (BTOL) =    0.105000E+01
 BACKTRACKING REDUCTION FACTOR             (BREDUC) =    0.100000E+00
 BACKTRACKING RESIDUAL LIMIT              (RES_LIM) =    0.200000E-02

       SOLUTION BY THE BICONJUGATE-GRADIENT STABILIZED METHOD
 ------------------------------------------------------------------
 MAXIMUM OF 300 CALLS OF SOLUTION ROUTINE
 MAXIMUM OF 1200 INTERNAL ITERATIONS PER CALL TO SOLUTION ROUTINE
 LINEAR ACCELERATION METHOD            = BCGS      
 MATRIX PRECONDITIONING TYPE           = MOD. INCOMPLETE LUT 
 MATRIX SCALING APPROACH               = NO SCALING          
 MATRIX REORDERING APPROACH            = ORIGINAL ORDERING        
 NUMBER OF ORTHOGONALIZATIONS          = 2
 HEAD CHANGE CRITERION FOR CLOSURE     =    0.10000E-05
 RESIDUAL CHANGE CRITERION FOR CLOSURE =    0.10000E+00
 RESIDUAL CONVERGENCE OPTION           = 0
 RESIDUAL CONVERGENCE NORM             = INFINITY NORM   
 RELAXATION FACTOR                     =    0.92000E+00
 NUMBER OF LEVELS                      =              5
 DROP TOLERANCE                        =    0.10000E-03


 
    Solving:  Stress period:     1    Time step:     1
 
1
 STRESS PERIOD NO. 1, LENGTH =   1.000000    
 ------------------------------------------
 NUMBER OF TIME STEPS = 1
 MULTIPLIER FOR DELT =     1.000
 INITIAL TIME STEP SIZE =   1.000000    

 SLN_1 OUTER ITERATION SUMMARY
 ----------------------------------------------------------------------------------------------------------------------------------------------------------------
                                OUTER      INNER  BACKTRACK  BACKTRACK        INCOMING        OUTGOING                    STEP   MAXIMUM CHANGE MODEL-(CELLID) OR
 OUTER ITERATION STEP       ITERATION  ITERATION       FLAG ITERATIONS        RESIDUAL        RESIDUAL  MAXIMUM CHANGE SUCCESS             MODEL-PACKAGE-(NUMBER)
 ----------------------------------------------------------------------------------------------------------------------------------------------------------------
 Backtracking                       1                     0          0       3134499.2       3134499.2                       *                                   
 Model                              1        105                                                             252.33660                              1_GWF-(44215)
 Backtracking                       2                     0          0       1.3013174       1.3013174                       *                                   
 Model                              2         70                                                            -1.1834322                              1_GWF-(58762)
 Backtracking                       3                     4          2       107.63106       1.6747889                                                           
 Model                              3         73                                                            -1.1740548                              1_GWF-(58762)
 Backtracking                       4                     4          2       106.75474       2.4800781                                                           
 Model                              4        106                                                            -1.1642852                              1_GWF-(58762)
 Backtracking                       5                     4          2       105.82628       3.4066312                                                           
 Model                              5         72                                                            -1.1554329                              1_GWF-(58762)
 Backtracking                       6                     4          2       104.96252       4.3648024                                                           
 Model                              6         71                                                            -1.1460271                              1_GWF-(58762)
 Backtracking                       7                     4          2       104.07032       5.3266114                                                           
 Model                              7        100                                                            -1.1365488                              1_GWF-(58762)
 Backtracking                       8                     4          2       103.15012       6.2811951                                                           
 Model                              8         86                                                            -1.1275301                              1_GWF-(58762)
 Backtracking                       9                     4          2       102.27749       7.2242687                                                           
 Model                              9         84                                                            -1.1184713                              1_GWF-(58762)
 Backtracking                      10                     4          2       101.40662       8.1534757                                                           
 Model                             10         67                                                            -1.1097684                              1_GWF-(58762)
 Backtracking                      11                     4          2       100.54712       9.0676579                                                           
 Model                             11         87                                                            -1.1006389                              1_GWF-(58762)
 Backtracking                      12                     4          2       99.690436       9.9661386                                                           
 Model                             12         72                                                            -1.0922540                              1_GWF-(58762)
 Backtracking                      13                     4          2       98.878070       10.848968                                                           
 Model                             13         97                                                            -1.0830115                              1_GWF-(58762)
 Backtracking                      14                     4          2       97.995296       11.715237                                                           
 Model                             14         83                                                            -1.0744072                              1_GWF-(58762)
 Backtracking                      15                     4          2       97.166929       12.565397                                                           
 Model                             15         76                                                            -1.0661702                              1_GWF-(58762)
 Backtracking                      16                     4          2       96.365677       13.399698                                                           
 Model                             16         88                                                            -1.0572605                              1_GWF-(58762)
 Backtracking                      17                     4          2       95.517671       14.217701                                                           
 Model                             17         96                                                            -1.0487074                              1_GWF-(58762)
 Backtracking                      18                     4          2       94.701584       15.019786                                                           
 Model                             18         86                                                            -1.0404149                              1_GWF-(58762)
 Backtracking                      19                     4          2       93.901026       15.806191                                                           
 Model                             19         83                                                            -1.0320770                              1_GWF-(58762)
 Backtracking                      20                     1          2       93.105201       16.577063                                                           
 Model                             20         71                                                            -1.0241127                              1_GWF-(58762)
 Backtracking                      21                     1          2       92.340886       17.332823                                                           
 Model                             21         70                                                            -1.0158496                              1_GWF-(58762)
 Backtracking                      22                     1          2       91.552723       18.073348                                                           
 Model                             22         67                                                            -1.0078043                              1_GWF-(58762)
 Backtracking                      23                     1          2       90.771231       18.798828                                                           
 Model                             23         90                                                           -0.99930274                              1_GWF-(58762)
 Backtracking                      24                     1          2       89.965550       19.509146                                                           
 Model                             24         86                                                           -0.99133977                              1_GWF-(58762)
 Backtracking                      25                     1          2       89.198839       20.204823                                                           
 Model                             25         79                                                           -0.98359419                              1_GWF-(58762)
 Backtracking                      26                     1          2       88.463152       20.886299                                                           
 Model                             26         83                                                           -0.97551964                              1_GWF-(58762)
 Backtracking                      27                     1          2       87.696090       21.553388                                                           
 Model                             27         79                                                           -0.96828113                              1_GWF-(58762)
 Backtracking                      28                     1          2       86.973690       22.206669                                                           
 Model                             28         75                                                           -0.96027301                              1_GWF-(58762)
 Backtracking                      29                     1          2       86.230195       22.846059                                                           
 Model                             29         71                                                           -0.95245457                              1_GWF-(58762)
 Backtracking                      30                     1          2       85.493087       23.471753                                                           
 Model                             30         69                                                           -0.94495906                              1_GWF-(58762)
 Backtracking                      31                     1          2       84.764942       24.083968                                                           
 Model                             31         94                                                           -0.93694524                              1_GWF-(58762)
 Backtracking                      32                     1          2       84.011753       24.682585                                                           
 Model                             32         70                                                           -0.92964941                              1_GWF-(58762)
 Backtracking                      33                     1          2       83.322583       25.268372                                                           
 Model                             33         67                                                           -0.92228073                              1_GWF-(58762)
 Backtracking                      34                     1          2       82.609784       25.841217                                                           
 Model                             34         84                                                           -0.91451522                              1_GWF-(58762)
 Backtracking                      35                     1          2       81.876324       26.401039                                                           
 Model                             35         81                                                           -0.90736398                              1_GWF-(58762)
 Backtracking                      36                     1          2       81.201821       26.948554                                                           
 Model                             36         81                                                           -0.89993399                              1_GWF-(58762)
 Backtracking                      37                     1          2       80.489438       27.483503                                                           
 Model                             37         89                                                           -0.89264643                              1_GWF-(58762)
 Backtracking                      38                     1          2       79.796144       28.006199                                                           
 Model                             38         83                                                           -0.88546604                              1_GWF-(58762)
 Backtracking                      39                     1          2       79.115516       28.516889                                                           
 Model                             39         70                                                           -0.87872566                              1_GWF-(58762)
 Backtracking                      40                     1          2       78.469478       29.016037                                                           
 Model                             40         85                                                           -0.87128239                              1_GWF-(58762)
 Backtracking                      41                     1          2       77.768828       29.503210                                                           
 Model                             41         84                                                           -0.86429673                              1_GWF-(58762)
 Backtracking                      42                     1          2       77.104627       29.978891                                                           
 Model                             42         70                                                           -0.85764976                              1_GWF-(58762)
 Backtracking                      43                     1          2       76.473951       30.443527                                                           
 Model                             43         85                                                           -0.85043132                              1_GWF-(58762)
 Backtracking                      44                     1          2       75.792050       30.896716                                                           
 Model                             44         85                                                           -0.84356813                              1_GWF-(58762)
 Backtracking                      45                     1          2       75.142037       31.338889                                                           
 Model                             45         71                                                           -0.83718787                              1_GWF-(58762)
 Backtracking                      46                     1          2       74.531052       31.770547                                                           
 Model                             46         75                                                           -0.83034551                              1_GWF-(58762)
 Backtracking                      47                     1          2       73.886758       32.191459                                                           
 Model                             47         77                                                           -0.82365728                              1_GWF-(58762)
 Backtracking                      48                     1          2       73.253934       32.601847                                                           
 Model                             48         83                                                           -0.81679134                              1_GWF-(58762)
 Backtracking                      49                     1          2       72.605991       33.001664                                                           
 Model                             49         77                                                           -0.81042260                              1_GWF-(58762)
 Backtracking                      50                     1          2       72.006087       33.391495                                                           
 Model                             50         86                                                           -0.80367713                              1_GWF-(58762)
 Backtracking                      51                     1          2       71.368854       33.771066                                                           
 Model                             51         93                                                           -0.79716000                              1_GWF-(58762)
 Backtracking                      52                     1          2       70.754177       34.140705                                                           
 Model                             52         77                                                           -0.79096110                              1_GWF-(58762)
 Backtracking                      53                     1          2       70.172550       34.500841                                                           
 Model                             53         77                                                           -0.78466442                              1_GWF-(58762)
 Backtracking                      54                     1          2       69.573075       34.851389                                                           
 Model                             54         87                                                           -0.77810710                              1_GWF-(58762)
 Backtracking                      55                     1          2       68.956138       35.192271                                                           
 Model                             55         79                                                           -0.77209591                              1_GWF-(58762)
 Backtracking                      56                     1          2       68.387280       35.524063                                                           
 Model                             56         73                                                           -0.76589497                              1_GWF-(58762)
 Backtracking                      57                     1          2       67.805667       35.846728                                                           
 Model                             57         86                                                           -0.75943784                              1_GWF-(58762)
 Backtracking                      58                     1          2       67.199749       36.160115                                                           
 Model                             58         77                                                           -0.75365081                              1_GWF-(58762)
 Backtracking                      59                     1          2       66.648720       36.464863                                                           
 Model                             59         89                                                           -0.74727212                              1_GWF-(58762)
 Backtracking                      60                     1          2       66.052745       36.760611                                                           
 Model                             60         78                                                           -0.74142741                              1_GWF-(58762)
 Backtracking                      61                     1          2       65.506036       37.047939                                                           
 Model                             61         74                                                           -0.73551370                              1_GWF-(58762)
 Backtracking                      62                     1          2       64.949401       37.326834                                                           
 Model                             62         68                                                           -0.72973387                              1_GWF-(58762)
 Backtracking                      63                     1          2       64.393969       37.597390                                                           
 Model                             63         72                                                           -0.72371146                              1_GWF-(58762)
 Backtracking                      64                     1          2       63.840716       37.859713                                                           
 Model                             64         76                                                           -0.71784506                              1_GWF-(58762)
 Backtracking                      65                     1          2       63.289287       38.113903                                                           
 Model                             65         84                                                           -0.71184340                              1_GWF-(58762)
 Backtracking                      66                     1          2       62.726810       38.359930                                                           
 Model                             66         78                                                           -0.70627292                              1_GWF-(58762)
 Backtracking                      67                     1          2       62.207673       38.598311                                                           
 Model                             67         69                                                           -0.70074545                              1_GWF-(58762)
 Backtracking                      68                     1          2       61.679024       38.829024                                                           
 Model                             68         96                                                           -0.69470175                              1_GWF-(58762)
 Backtracking                      69                     1          2       61.123045       39.051875                                                           
 Model                             69         72                                                           -0.68943832                              1_GWF-(58762)
 Backtracking                      70                     1          2       60.625570       39.267526                                                           
 Model                             70         85                                                           -0.68359998                              1_GWF-(58762)
 Backtracking                      71                     1          2       60.081392       39.475581                                                           
 Model                             71        102                                                           -0.67802259                              1_GWF-(58762)
 Backtracking                      72                     1          2       59.562400       39.676370                                                           
 Model                             72         72                                                           -0.67281163                              1_GWF-(58762)
 Backtracking                      73                     1          1       59.076543       41.615720                                                           
 Model                             73         73                                                           -0.61855406                              1_GWF-(58762)
 Backtracking                      74                     1          1       54.279788       42.881667                                                           
 Model                             74         71                                                           -0.56859841                              1_GWF-(58762)
 Backtracking                      75                     1          1       49.870604       43.580234                                                           
 Model                             75         67                                                           -0.52266272                              1_GWF-(58762)
 Backtracking                      76                     1          1       45.817777       43.803750                                                           
 Model                             76         68                                                           -0.48041681                              1_GWF-(58762)
 Backtracking                      77                     0          0       42.094655       42.094655                       *                                   
 Model                             77         67                                                       -9.23648734E-02                              1_GWF-(58762)
 Backtracking                      78                     0          0       8.1038043       8.1038043                       *                                   
 Model                             78         70                                                       -1.77340424E-02                              1_GWF-(58762)
 Backtracking                      79                     0          0       1.5594396       1.5594396                       *                                   
 Model                             79         65                                                       -3.40682274E-03                              1_GWF-(58762)
 Backtracking                      80                     0          0      0.29992797      0.29992797                       *                                   
 Model                             80         43                                                       -5.78004981E-04       *                      1_GWF-(58762)
 ----------------------------------------------------------------------------------------------------------------------------------------------------------------


 80 CALLS TO NUMERICAL SOLUTION IN TIME STEP 1 STRESS PERIOD 1
 6327 TOTAL ITERATIONS

 MEMORY MANAGER TOTAL STORAGE BY DATA TYPE, IN MEGABYTES
 -------------------------------
                    ALLOCATED   
 DATA TYPE           MEMORY     
 -------------------------------
 Character        1.04880000E-02
 Logical          4.80000000E-05
 Integer          27.969996     
 Real             67.652016     
 -------------------------------
 Total            95.632548     
 Virtual          0.0000000     
 -------------------------------


 
 Run end date and time (yyyy/mm/dd hh:mm:ss): 2026/01/21  5:34:00
 Elapsed run time: 19.747 Seconds
 Normal termination of simulation.
