                                   MODFLOW 6
                U.S. GEOLOGICAL SURVEY MODULAR HYDROLOGIC MODEL
                          GROUNDWATER FLOW MODEL (GWF)
                            VERSION 6.6.0 12/20/2024

   MODFLOW 6 compiled Dec 31 2024 17:10:16 with Intel(R) Fortran Intel(R) 64
   Compiler Classic for applications running on Intel(R) 64, Version 2021.7.0
                             Build 20220726_000000

This software has been approved for release by the U.S. Geological 
Survey (USGS). Although the software has been subjected to rigorous 
review, the USGS reserves the right to update the software as needed 
pursuant to further analysis and review. No warranty, expressed or 
implied, is made by the USGS or the U.S. Government as to the 
functionality of the software and related material nor shall the 
fact of release constitute any such warranty. Furthermore, the 
software is released on condition that neither the USGS nor the U.S. 
Government shall be held liable for any damages resulting from its 
authorized or unauthorized use. Also refer to the USGS Water 
Resources Software User Rights Notice for complete use, copyright, 
and distribution information.


As a work of the United States Government, this USGS product is 
in the public domain within the United States. You can copy, 
modify, distribute, and perform the work, even for commercial 
purposes, all without asking permission. Additionally, USGS 
waives copyright and related rights in the work worldwide 
through CC0 1.0 Universal Public Domain Dedication 
(https://creativecommons.org/publicdomain/zero/1.0/).

The following GNU Lesser General Public License (LGPL) libraries
are used in this USGS product:

    SPARSKIT version 2.0
      ilut, luson, and qsplit 
      (https://www-users.cse.umn.edu/~saad/software/SPARSKIT/)

    RCM - Reverse Cuthill McKee Ordering
      (https://people.math.sc.edu/Burkardt/f_src/rcm/rcm.html)

    BLAS - Basic Linear Algebra Subprograms Level 1
      (https://people.math.sc.edu/Burkardt/f_src/blas1_d/blas1_d.html)

    SPARSEKIT - Sparse Matrix Utility Package
      amux, dperm, dvperm, rperm, and cperm
      (https://people.sc.fsu.edu/~jburkardt/f77_src/sparsekit/sparsekit.html)

The following BSD-3 License libraries are used in this USGS product:

    Modern Fortran DAG Library
      Copyright (c) 2018, Jacob Williams
      All rights reserved.
      (https://github.com/jacobwilliams/daglib)

MODFLOW 6 compiler options: /O2 /heap-arrays:0 /fpe:0 /traceback /nologo /fpp
/c /module:win64\mod_mf6\ /object:win64\obj_mf6\

System command used to initiate simulation:
mf6

MODFLOW was compiled using uniform precision.

Real Variables
  KIND: 8
  TINY (smallest non-zero value):    2.225074-308
  HUGE (largest value):    1.797693+308
  PRECISION: 15
  SIZE IN BITS: 64

Integer Variables
  KIND: 4
  HUGE (largest value): 2147483647
  SIZE IN BITS: 32

Long Integer Variables
  KIND: 8
  HUGE (largest value): 9223372036854775807
  SIZE IN BITS: 64

Logical Variables
  KIND: 4
  SIZE IN BITS: 32
 
 NAMEFILE OPTIONS:
    FLOWS WILL BE SAVED TO BUDGET FILE SPECIFIED IN OUTPUT CONTROL
 END NAMEFILE OPTIONS:

 DISU -- UNSTRUCTURED GRID DISCRETIZATION PACKAGE, VERSION 2 : 3/27/2014 - INPUT READ FROM MEMPATH: __INPUT__/DISU_MODEL/DISU                         


 Setting Discretization Options
    Model length unit [0=UND, 1=FEET, 2=METERS, 3=CENTIMETERS] set as 2
    VERTICAL_OFFSET_TOLERANCE = .000000000000000
 End Setting Discretization Options

 Setting Discretization Dimensions
    NODES = 84307
    NJA = 556185
    NVERT = 337228
 End Setting Discretization Dimensions

 Setting Discretization Griddata
    TOP set from input file
    BOT set from input file
    AREA set from input file
 End Setting Discretization Griddata

 Setting Discretization Connectivity
    IAC set from input file
    JA set from input file
    IHC set from input file
    CL12 set from input file
    HWVA set from input file
    ANGLDEGX set from input file
 End Setting Discretization Connectivity

 Discretization Vertex data loaded
 Discretization Cell2d data loaded

 NPF -- NODE PROPERTY FLOW PACKAGE, VERSION 1, 3/30/2015 INPUT READ FROM MEMPATH: __INPUT__/DISU_MODEL/NPF                          


 IC -- Initial Conditions Package, Version 8, 3/28/2015 input read from mempath: __INPUT__/DISU_MODEL/IC                           


 Setting NPF Options
    Cell-by-cell flow information will be saved to binary file whenever ICBCFL is not zero.
    Specific discharge will be calculated at cell centers and written to DATA-SPDIS in budget file when requested.
 End Setting NPF Options

 Setting NPF Griddata
    ICELLTYPE set from input file
    K set from input file
    K33 not provided.  Setting K33 = K.
    K22 not provided.  Setting K22 = K.
 End Setting NPF Griddata


 WEL   -- WEL PACKAGE, VERSION 8, 2/22/2014 INPUT READ FROM MEMPATH: __INPUT__/DISU_MODEL/WELL_CASED_1                 

 PROCESSING WEL BASE OPTIONS
    FLOWS WILL BE SAVED TO BUDGET FILE SPECIFIED IN OUTPUT CONTROL
 END OF WEL BASE OPTIONS

 PROCESSING WEL OPTIONS
 END OF WEL OPTIONS

 PROCESSING WEL BASE DIMENSIONS
    MAXBOUND =   62277
 END OF WEL BASE DIMENSIONS

 RCH   -- RCH PACKAGE, VERSION 8, 2/22/2014 INPUT READ FROM MEMPATH: __INPUT__/DISU_MODEL/RCH                          

 PROCESSING RCH BASE OPTIONS
    FLOWS WILL BE SAVED TO BUDGET FILE SPECIFIED IN OUTPUT CONTROL
    RCH FLOWS WILL BE PRINTED TO LISTING FILE.
 END OF RCH BASE OPTIONS

 PROCESSING RCH OPTIONS
    RECHARGE WILL BE APPLIED TO SPECIFIED CELL.
 END OF RCH OPTIONS

 PROCESSING RCH BASE DIMENSIONS
    MAXBOUND =   21123
 END OF RCH BASE DIMENSIONS

 EVT   -- EVT PACKAGE, VERSION 8, 2/22/2014 INPUT READ FROM MEMPATH: __INPUT__/DISU_MODEL/EVT                          

 PROCESSING EVT BASE OPTIONS
    FLOWS WILL BE SAVED TO BUDGET FILE SPECIFIED IN OUTPUT CONTROL
 END OF EVT BASE OPTIONS

 PROCESSING EVT OPTIONS
 END OF EVT OPTIONS

 PROCESSING EVT BASE DIMENSIONS
    MAXBOUND =   18987
 END OF EVT BASE DIMENSIONS

 PROCESSING EVT DIMENSIONS
    NSEG = 1
 END OF EVT DIMENSIONS

 CHD   -- CHD PACKAGE, VERSION 8, 2/22/2014 INPUT READ FROM MEMPATH: __INPUT__/DISU_MODEL/CHD                          

 PROCESSING CHD BASE OPTIONS
    FLOWS WILL BE SAVED TO BUDGET FILE SPECIFIED IN OUTPUT CONTROL
 END OF CHD BASE OPTIONS

 PROCESSING CHD BASE DIMENSIONS
    MAXBOUND =    9044
 END OF CHD BASE DIMENSIONS
    STRT set from input file
    BINARY GRID INFORMATION WILL BE WRITTEN TO:
      UNIT NUMBER: 1016
      FILE NAME: DISU_model.disu.grb

 OPENED DISU_model.disu.grb
 FILE TYPE:DATA(BINARY)   UNIT 1016   STATUS:REPLACE             
 FORMAT:UNFORMATTED            ACCESS:STREAM              
 ACTION:READWRITE           

      THE LAST TIME STEP WILL BE PRINTED
      THE LAST TIME STEP WILL BE PRINTED
 # File generated by Flopy version 3.9.1 on 01/31/2026 at 15:00:16.

 PROCESSING OC OPTIONS

    BUDGET INFORMATION WILL BE WRITTEN TO:
      UNIT NUMBER: 1017
      FILE NAME: quadtree_caseD_1.cbc

 OPENED quadtree_caseD_1.cbc
 FILE TYPE:DATA(BINARY)   UNIT 1017   STATUS:REPLACE             
 FORMAT:UNFORMATTED            ACCESS:STREAM              
 ACTION:READWRITE           

    HEAD INFORMATION WILL BE WRITTEN TO:
      UNIT NUMBER: 1018
      FILE NAME: quadtree_caseD_1.hds

 OPENED quadtree_caseD_1.hds
 FILE TYPE:DATA(BINARY)   UNIT 1018   STATUS:REPLACE             
 FORMAT:UNFORMATTED            ACCESS:STREAM              
 ACTION:READWRITE           

 END OF OC OPTIONS

start timestep kper="1" kstp="1" mode="normal"


 BEGIN READING OUTPUT CONTROL FOR STRESS PERIOD 1
      THE LAST TIME STEP WILL BE SAVED
      THE LAST TIME STEP WILL BE SAVED
      THE LAST TIME STEP WILL BE PRINTED

 END READING OUTPUT CONTROL FOR STRESS PERIOD 1

 CELL CONVERSIONS FOR ITER.=2  STEP=1  PERIOD=1   (NODE or LRC)
     DRY             (12975) DRY             (13153) DRY             (13154) DRY             (13155) DRY             (13820)
     DRY             (13821) DRY             (14022) DRY             (14023) DRY             (14282) DRY             (14283)
     DRY             (14794) DRY             (14795) DRY             (14796) DRY             (14797) DRY             (15052)
     DRY             (15053) DRY             (15054) DRY             (15323) DRY             (15324) DRY             (15889)
     DRY             (15890) DRY             (16179) DRY             (16180) DRY             (16181) DRY             (16469)
     DRY             (17736) DRY             (17737) DRY             (18048) DRY             (18049) DRY             (18347)
     DRY             (18348) DRY             (18946) DRY             (18947) DRY             (18948) DRY             (19213)
     DRY             (19476) DRY             (19477) DRY             (19478) DRY             (19967) DRY             (19968)
     DRY             (20192) DRY             (20434) DRY             (20593) DRY             (20594) DRY             (20595)
     DRY             (20596) DRY             (20597) DRY             (20598) DRY             (20616) DRY             (20617)
     DRY             (20762) DRY             (20763) DRY             (20764) DRY             (20765) DRY             (20904)
     DRY             (20983) DRY             (20984) DRY             (20997) DRY             (20998) DRY             (20999)
     DRY             (21060) DRY             (21085) DRY             (21086) DRY             (21116) DRY             (21117)
     DRY             (21118) DRY             (21119) DRY             (21120) DRY             (21121) DRY             (21122)
     DRY             (21123)
 UBDSV1 SAVING     FLOW-JA-FACE ON UNIT   1017 AT TIME STEP      1, STRESS PERIOD      1
 UBDSV06 SAVING       DATA-SPDIS IN MODEL DISU_MODEL       PACKAGE NPF             CONNECTED TO MODEL DISU_MODEL       PACKAGE NPF              ON UNIT   1017 AT TIME STEP      1, STRESS PERIOD      1
 UBDSV06 SAVING              WEL IN MODEL DISU_MODEL       PACKAGE DISU_MODEL      CONNECTED TO MODEL DISU_MODEL       PACKAGE WELL_CASED_1     ON UNIT   1017 AT TIME STEP      1, STRESS PERIOD      1
 UBDSV06 SAVING              RCH IN MODEL DISU_MODEL       PACKAGE DISU_MODEL      CONNECTED TO MODEL DISU_MODEL       PACKAGE RCH              ON UNIT   1017 AT TIME STEP      1, STRESS PERIOD      1
 UBDSV06 SAVING              EVT IN MODEL DISU_MODEL       PACKAGE DISU_MODEL      CONNECTED TO MODEL DISU_MODEL       PACKAGE EVT              ON UNIT   1017 AT TIME STEP      1, STRESS PERIOD      1
 UBDSV06 SAVING              CHD IN MODEL DISU_MODEL       PACKAGE DISU_MODEL      CONNECTED TO MODEL DISU_MODEL       PACKAGE CHD              ON UNIT   1017 AT TIME STEP      1, STRESS PERIOD      1

 RCH PACKAGE (RCH) FLOW RATES   PERIOD      1   STEP        1
 -----------------------------------------------
   NUMBER   CELLID                    RATE      
 -----------------------------------------------
     1      (1)                   0.0000000     
     2      (2)                   0.0000000     
     3      (3)                   0.0000000     
     4      (4)                   0.0000000     
     5      (5)                   0.0000000     
     6      (6)                   0.0000000     
     7      (7)                   0.0000000     
     8      (8)                   0.0000000     
     9      (9)                   0.0000000     
     10     (10)                  0.0000000     
     11     (11)                  0.0000000     
     12     (12)                  0.0000000     
     13     (13)                  0.0000000     
     14     (14)                  0.0000000     
     15     (15)                  0.0000000     
     16     (16)                  0.0000000     
     17     (17)                  0.0000000     
     18     (18)                  0.0000000     
     19     (19)                  0.0000000     
     20     (20)                  0.0000000     
     21     (21)                  0.0000000     
     22     (22)                  0.0000000     
     23     (23)                  0.0000000     
     24     (24)                  0.0000000     
     25     (25)                  0.0000000     
     26     (26)                  0.0000000     
     27     (27)                  0.0000000     
     28     (28)                  0.0000000     
     29     (29)                  0.0000000     
     30     (30)                  0.0000000     
     31     (31)                  0.0000000     
     32     (32)                  0.0000000     
     33     (33)                  0.0000000     
     34     (34)                  0.0000000     
     35     (35)                  0.0000000     
     36     (36)                  0.0000000     
     37     (37)                  0.0000000     
     38     (38)                  0.0000000     
     39     (39)                  0.0000000     
     40     (40)                  0.0000000     
     41     (41)                  0.0000000     
     42     (42)                  0.0000000     
     43     (43)                  0.0000000     
     44     (44)                  0.0000000     
     45     (45)                  0.0000000     
     46     (46)                  0.0000000     
     47     (47)                  0.0000000     
     48     (48)                  0.0000000     
     49     (49)                  0.0000000     
     50     (50)                  0.0000000     
     51     (51)                  0.0000000     
     52     (52)                  0.0000000     
     53     (53)                  0.0000000     
     54     (54)                  0.0000000     
     55     (55)                  0.0000000     
     56     (56)                  0.0000000     
     57     (57)                  0.0000000     
     58     (58)                  0.0000000     
     59     (59)                  0.0000000     
     60     (60)                  0.0000000     
     61     (61)                  0.0000000     
     62     (62)                  0.0000000     
     63     (63)                  0.0000000     
     64     (64)                  0.0000000     
     65     (65)                  0.0000000     
     66     (66)                  0.0000000     
     67     (67)                  0.0000000     
     68     (68)                  0.0000000     
     69     (69)                  0.0000000     
     70     (70)                  0.0000000     
     71     (71)                  0.0000000     
     72     (72)                  0.0000000     
     73     (73)                  0.0000000     
     74     (74)                  0.0000000     
     75     (75)                  0.0000000     
     76     (76)                  0.0000000     
     77     (77)                  0.0000000     
     78     (78)                  0.0000000     
     79     (79)                  0.0000000     
     80     (80)                  0.0000000     
     81     (81)                  0.0000000     
     82     (82)                  0.0000000     
     83     (83)                  0.0000000     
     84     (84)                  0.0000000     
     85     (85)                  0.0000000     
     86     (86)                  0.0000000     
     87     (87)                  0.0000000     
     88     (88)                  0.0000000     
     89     (89)                  0.0000000     
     90     (90)                  0.0000000     
     91     (91)                  0.0000000     
     92     (92)                  0.0000000     
     93     (93)                  0.0000000     
     94     (94)                  4.62126474E-03
     95     (95)                  4.57037603E-03
     96     (96)                  4.62274066E-03
     97     (97)                  0.0000000     
     98     (98)                  0.0000000     
     99     (99)                  0.0000000     
    100     (100)                 0.0000000     
    101     (101)                 0.0000000     
    102     (102)                 0.0000000     
    103     (103)                 0.0000000     
    104     (104)                 0.0000000     
    105     (105)                 4.68693208E-03
    106     (106)                 0.0000000     
    107     (107)                 4.69075261E-03
    108     (108)                 4.77156524E-03
    109     (109)                 0.0000000     
    110     (110)                 0.0000000     
    111     (111)                 0.0000000     
    112     (112)                 0.0000000     
    113     (113)                 0.0000000     
    114     (114)                 0.0000000     
    115     (115)                 0.0000000     
    116     (116)                 0.0000000     
    117     (117)                 0.0000000     
    118     (118)                 0.0000000     
    119     (119)                 0.0000000     
    120     (120)                 0.0000000     
    121     (121)                 0.0000000     
    122     (122)                 0.0000000     
    123     (123)                 0.0000000     
    124     (124)                 0.0000000     
    125     (125)                 0.0000000     
    126     (126)                 0.0000000     
    127     (127)                 0.0000000     
    128     (128)                 0.0000000     
    129     (129)                 0.0000000     
    130     (130)                 0.0000000     
    131     (131)                 0.0000000     
    132     (132)                 0.0000000     
    133     (133)                 0.0000000     
    134     (134)                 0.0000000     
    135     (135)                 0.0000000     
    136     (136)                 0.0000000     
    137     (137)                 0.0000000     
    138     (138)                 0.0000000     
    139     (139)                 0.0000000     
    140     (140)                 0.0000000     
    141     (141)                 0.0000000     
    142     (142)                 0.0000000     
    143     (143)                 0.0000000     
    144     (144)                 0.0000000     
    145     (145)                 0.0000000     
    146     (146)                 0.0000000     
    147     (147)                 0.0000000     
    148     (148)                 0.0000000     
    149     (149)                 0.0000000     
    150     (150)                 0.0000000     
    151     (151)                 0.0000000     
    152     (152)                 0.0000000     
    153     (153)                 0.0000000     
    154     (154)                 0.0000000     
    155     (155)                 0.0000000     
    156     (156)                 0.0000000     
    157     (157)                 0.0000000     
    158     (158)                 0.0000000     
    159     (159)                 0.0000000     
    160     (160)                 0.0000000     
    161     (161)                 0.0000000     
    162     (162)                 0.0000000     
    163     (163)                 0.0000000     
    164     (164)                 0.0000000     
    165     (165)                 0.0000000     
    166     (166)                 0.0000000     
    167     (167)                 0.0000000     
    168     (168)                 0.0000000     
    169     (169)                 0.0000000     
    170     (170)                 0.0000000     
    171     (171)                 0.0000000     
    172     (172)                 0.0000000     
    173     (173)                 0.0000000     
    174     (174)                 0.0000000     
    175     (175)                 0.0000000     
    176     (176)                 0.0000000     
    177     (177)                 0.0000000     
    178     (178)                 0.0000000     
    179     (179)                 0.0000000     
    180     (180)                 0.0000000     
    181     (181)                 0.0000000     
    182     (182)                 0.0000000     
    183     (183)                 0.0000000     
    184     (184)                 0.0000000     
    185     (185)                 0.0000000     
    186     (186)                 0.0000000     
    187     (187)                 0.0000000     
    188     (188)                 0.0000000     
    189     (189)                 0.0000000     
    190     (190)                 0.0000000     
    191     (191)                 0.0000000     
    192     (192)                 0.0000000     
    193     (193)                 0.0000000     
    194     (194)                 0.0000000     
    195     (195)                 0.0000000     
    196     (196)                 0.0000000     
    197     (197)                 0.0000000     
    198     (198)                 0.0000000     
    199     (199)                 0.0000000     
    200     (200)                 0.0000000     
    201     (201)                 0.0000000     
    202     (202)                 0.0000000     
    203     (203)                 0.0000000     
    204     (204)                 0.0000000     
    205     (205)                 0.0000000     
    206     (206)                 0.0000000     
    207     (207)                 0.0000000     
    208     (208)                 0.0000000     
    209     (209)                 0.0000000     
    210     (210)                 0.0000000     
    211     (211)                 0.0000000     
    212     (212)                 0.0000000     
    213     (213)                 0.0000000     
    214     (214)                 0.0000000     
    215     (215)                 0.0000000     
    216     (216)                 0.0000000     
    217     (217)                 0.0000000     
    218     (218)                 0.0000000     
    219     (219)                 0.0000000     
    220     (220)                 0.0000000     
    221     (221)                 0.0000000     
    222     (222)                 0.0000000     
    223     (223)                 0.0000000     
    224     (224)                 0.0000000     
    225     (225)                 0.0000000     
    226     (226)                 0.0000000     
    227     (227)                 0.0000000     
    228     (228)                 0.0000000     
    229     (229)                 0.0000000     
    230     (230)                 0.0000000     
    231     (231)                 0.0000000     
    232     (232)                 0.0000000     
    233     (233)                 0.0000000     
    234     (234)                 0.0000000     
    235     (235)                 0.0000000     
    236     (236)                 0.0000000     
    237     (237)                 0.0000000     
    238     (238)                 0.0000000     
    239     (239)                 0.0000000     
    240     (240)                 0.0000000     
    241     (241)                 0.0000000     
    242     (242)                 0.0000000     
    243     (243)                 0.0000000     
    244     (244)                 4.87699281E-03
    245     (245)                 0.0000000     
    246     (246)                 0.0000000     
    247     (247)                 0.0000000     
    248     (248)                 0.0000000     
    249     (249)                 0.0000000     
    250     (250)                 0.0000000     
    251     (251)                 4.58929023E-03
    252     (252)                 4.56177783E-03
    253     (253)                 4.74231929E-03
    254     (254)                 4.67662374E-03
    255     (255)                 4.79696982E-03
    256     (256)                 4.73133319E-03
    257     (257)                 1.85495250E-02
    258     (258)                 0.0000000     
    259     (259)                 4.54670205E-03
    260     (260)                 4.55559061E-03
    261     (261)                 4.57100749E-03
    262     (262)                 1.84718586E-02
    263     (263)                 4.59443905E-03
    264     (264)                 4.61002171E-03
    265     (265)                 4.64897696E-03
    266     (266)                 4.66454238E-03
    267     (267)                 1.87900376E-02
    268     (268)                 1.90335826E-02
    269     (269)                 4.90059803E-03
    270     (270)                 0.0000000     
    271     (271)                 4.93166823E-03
    272     (272)                 5.03729431E-03
    273     (273)                 1.94239886E-02
    274     (274)                 4.97465478E-03
    275     (275)                 5.08027453E-03
    276     (276)                 5.02989786E-03
    277     (277)                 5.13444134E-03
    278     (278)                 0.0000000     
    279     (279)                 0.0000000     
    280     (280)                 5.14663691E-03
    281     (281)                 5.25703387E-03
    282     (282)                 0.0000000     
    283     (283)                 0.0000000     
    284     (284)                 5.36631392E-03
    285     (285)                 0.0000000     
    286     (286)                 5.18931015E-03
    287     (287)                 5.29909323E-03
    288     (288)                 5.24209862E-03
    289     (289)                 5.35022603E-03
    290     (290)                 5.40747158E-03
    291     (291)                 5.51279767E-03
    292     (292)                 5.45671348E-03
    293     (293)                 5.55996514E-03
    294     (294)                 0.0000000     
    295     (295)                 0.0000000     
    296     (296)                 0.0000000     
    297     (297)                 0.0000000     
    298     (298)                 0.0000000     
    299     (299)                 0.0000000     
    300     (300)                 0.0000000     
    301     (301)                 0.0000000     
    302     (302)                 5.61387886E-03
    303     (303)                 0.0000000     
    304     (304)                 5.65884304E-03
    305     (305)                 5.75259290E-03
    306     (306)                 0.0000000     
    307     (307)                 0.0000000     
    308     (308)                 5.84076623E-03
    309     (309)                 5.92314836E-03
    310     (310)                 0.0000000     
    311     (311)                 0.0000000     
    312     (312)                 0.0000000     
    313     (313)                 0.0000000     
    314     (314)                 0.0000000     
    315     (315)                 0.0000000     
    316     (316)                 0.0000000     
    317     (317)                 0.0000000     
    318     (318)                 0.0000000     
    319     (319)                 0.0000000     
    320     (320)                 0.0000000     
    321     (321)                 0.0000000     
    322     (322)                 0.0000000     
    323     (323)                 0.0000000     
    324     (324)                 0.0000000     
    325     (325)                 0.0000000     
    326     (326)                 0.0000000     
    327     (327)                 0.0000000     
    328     (328)                 0.0000000     
    329     (329)                 0.0000000     
    330     (330)                 0.0000000     
    331     (331)                 0.0000000     
    332     (332)                 0.0000000     
    333     (333)                 0.0000000     
    334     (334)                 0.0000000     
    335     (335)                 0.0000000     
    336     (336)                 0.0000000     
    337     (337)                 0.0000000     
    338     (338)                 0.0000000     
    339     (339)                 0.0000000     
    340     (340)                 0.0000000     
    341     (341)                 0.0000000     
    342     (342)                 0.0000000     
    343     (343)                 0.0000000     
    344     (344)                 0.0000000     
    345     (345)                 0.0000000     
    346     (346)                 0.0000000     
    347     (347)                 0.0000000     
    348     (348)                 0.0000000     
    349     (349)                 0.0000000     
    350     (350)                 0.0000000     
    351     (351)                 0.0000000     
    352     (352)                 0.0000000     
    353     (353)                 0.0000000     
    354     (354)                 0.0000000     
    355     (355)                 0.0000000     
    356     (356)                 0.0000000     
    357     (357)                 0.0000000     
    358     (358)                 0.0000000     
    359     (359)                 0.0000000     
    360     (360)                 0.0000000     
    361     (361)                 0.0000000     
    362     (362)                 0.0000000     
    363     (363)                 0.0000000     
    364     (364)                 0.0000000     
    365     (365)                 0.0000000     
    366     (366)                 0.0000000     
    367     (367)                 0.0000000     
    368     (368)                 0.0000000     
    369     (369)                 0.0000000     
    370     (370)                 0.0000000     
    371     (371)                 0.0000000     
    372     (372)                 0.0000000     
    373     (373)                 0.0000000     
    374     (374)                 0.0000000     
    375     (375)                 0.0000000     
    376     (376)                 0.0000000     
    377     (377)                 0.0000000     
    378     (378)                 0.0000000     
    379     (379)                 0.0000000     
    380     (380)                 0.0000000     
    381     (381)                 0.0000000     
    382     (382)                 0.0000000     
    383     (383)                 0.0000000     
    384     (384)                 0.0000000     
    385     (385)                 0.0000000     
    386     (386)                 0.0000000     
    387     (387)                 0.0000000     
    388     (388)                 0.0000000     
    389     (389)                 0.0000000     
    390     (390)                 0.0000000     
    391     (391)                 0.0000000     
    392     (392)                 0.0000000     
    393     (393)                 0.0000000     
    394     (394)                 0.0000000     
    395     (395)                 0.0000000     
    396     (396)                 0.0000000     
    397     (397)                 0.0000000     
    398     (398)                 0.0000000     
    399     (399)                 0.0000000     
    400     (400)                 0.0000000     
    401     (401)                 0.0000000     
    402     (402)                 0.0000000     
    403     (403)                 0.0000000     
    404     (404)                 0.0000000     
    405     (405)                 0.0000000     
    406     (406)                 0.0000000     
    407     (407)                 0.0000000     
    408     (408)                 0.0000000     
    409     (409)                 0.0000000     
    410     (410)                 0.0000000     
    411     (411)                 0.0000000     
    412     (412)                 0.0000000     
    413     (413)                 0.0000000     
    414     (414)                 0.0000000     
    415     (415)                 0.0000000     
    416     (416)                 0.0000000     
    417     (417)                 6.41046072E-03
    418     (418)                 6.41560835E-03
    419     (419)                 0.0000000     
    420     (420)                 0.0000000     
    421     (421)                 0.0000000     
    422     (422)                 0.0000000     
    423     (423)                 0.0000000     
    424     (424)                 0.0000000     
    425     (425)                 0.0000000     
    426     (426)                 0.0000000     
    427     (427)                 0.0000000     
    428     (428)                 0.0000000     
    429     (429)                 6.42040992E-03
    430     (430)                 6.42463544E-03
    431     (431)                 0.0000000     
    432     (432)                 6.42557703E-03
    433     (433)                 6.42804045E-03
    434     (434)                 6.43037092E-03
    435     (435)                 0.0000000     
    436     (436)                 0.0000000     
    437     (437)                 0.0000000     
    438     (438)                 6.39866850E-03
    439     (439)                 0.0000000     
    440     (440)                 0.0000000     
    441     (441)                 6.39274460E-03
    442     (442)                 6.38458809E-03
    443     (443)                 6.42493742E-03
    444     (444)                 6.40737015E-03
    445     (445)                 6.43136694E-03
    446     (446)                 6.41585390E-03
    447     (447)                 2.56231491E-02
    448     (448)                 0.0000000     
    449     (449)                 0.0000000     
    450     (450)                 0.0000000     
    451     (451)                 0.0000000     
    452     (452)                 0.0000000     
    453     (453)                 0.0000000     
    454     (454)                 0.0000000     
    455     (455)                 0.0000000     
    456     (456)                 6.38788535E-03
    457     (457)                 6.37641617E-03
    458     (458)                 6.40189969E-03
    459     (459)                 6.39244708E-03
    460     (460)                 0.0000000     
    461     (461)                 0.0000000     
    462     (462)                 6.38019952E-03
    463     (463)                 6.36492642E-03
    464     (464)                 0.0000000     
    465     (465)                 0.0000000     
    466     (466)                 0.0000000     
    467     (467)                 0.0000000     
    468     (468)                 0.0000000     
    469     (469)                 0.0000000     
    470     (470)                 0.0000000     
    471     (471)                 0.0000000     
    472     (472)                 0.0000000     
    473     (473)                 0.0000000     
    474     (474)                 0.0000000     
    475     (475)                 0.0000000     
    476     (476)                 0.0000000     
    477     (477)                 0.0000000     
    478     (478)                 0.0000000     
    479     (479)                 0.0000000     
    480     (480)                 0.0000000     
    481     (481)                 0.0000000     
    482     (482)                 0.0000000     
    483     (483)                 0.0000000     
    484     (484)                 0.0000000     
    485     (485)                 0.0000000     
    486     (486)                 0.0000000     
    487     (487)                 0.0000000     
    488     (488)                 0.0000000     
    489     (489)                 0.0000000     
    490     (490)                 0.0000000     
    491     (491)                 0.0000000     
    492     (492)                 6.12282924E-03
    493     (493)                 0.0000000     
    494     (494)                 0.0000000     
    495     (495)                 0.0000000     
    496     (496)                 0.0000000     
    497     (497)                 0.0000000     
    498     (498)                 0.0000000     
    499     (499)                 0.0000000     
    500     (500)                 0.0000000     
    501     (501)                 0.0000000     
    502     (502)                 0.0000000     
    503     (503)                 6.07040786E-03
    504     (504)                 6.01274355E-03
    505     (505)                 0.0000000     
    506     (506)                 5.81872256E-03
    507     (507)                 5.94975779E-03
    508     (508)                 5.88147589E-03
    509     (509)                 0.0000000     
    510     (510)                 0.0000000     
    511     (511)                 0.0000000     
    512     (512)                 0.0000000     
    513     (513)                 0.0000000     
    514     (514)                 0.0000000     
    515     (515)                 5.49608095E-03
    516     (516)                 5.40021697E-03
    517     (517)                 5.74002844E-03
    518     (518)                 5.65636166E-03
    519     (519)                 5.80807345E-03
    520     (520)                 5.72993541E-03
    521     (521)                 2.22537192E-02
    522     (522)                 0.0000000     
    523     (523)                 5.13054336E-03
    524     (524)                 5.30286229E-03
    525     (525)                 5.20619599E-03
    526     (526)                 2.01076671E-02
    527     (527)                 2.15366615E-02
    528     (528)                 5.20350522E-03
    529     (529)                 5.12052636E-03
    530     (530)                 5.30525357E-03
    531     (531)                 5.22708478E-03
    532     (532)                 1.94881149E-02
    533     (533)                 1.91144102E-02
    534     (534)                 5.04701187E-03
    535     (535)                 4.98637451E-03
    536     (536)                 5.15772465E-03
    537     (537)                 5.10042716E-03
    538     (538)                 4.94175259E-03
    539     (539)                 4.91564046E-03
    540     (540)                 5.05819675E-03
    541     (541)                 5.03342998E-03
    542     (542)                 1.90643166E-02
    543     (543)                 1.93476869E-02
    544     (544)                 4.90955612E-03
    545     (545)                 4.92382528E-03
    546     (546)                 5.02759122E-03
    547     (547)                 5.04100065E-03
    548     (548)                 2.02323739E-02
    549     (549)                 1.99859654E-02
    550     (550)                 2.07428862E-02
    551     (551)                 5.09856229E-03
    552     (552)                 5.17931951E-03
    553     (553)                 5.21075165E-03
    554     (554)                 5.28679144E-03
    555     (555)                 5.26854141E-03
    556     (556)                 5.36294426E-03
    557     (557)                 5.37073221E-03
    558     (558)                 5.45946931E-03
    559     (559)                 2.15680793E-02
    560     (560)                 5.51392185E-03
    561     (561)                 5.61415597E-03
    562     (562)                 5.57881909E-03
    563     (563)                 5.67509561E-03
    564     (564)                 2.22038670E-02
    565     (565)                 5.65096826E-03
    566     (566)                 5.74237638E-03
    567     (567)                 5.72978134E-03
    568     (568)                 5.81546524E-03
    569     (569)                 5.70997318E-03
    570     (570)                 5.80067317E-03
    571     (571)                 5.76700364E-03
    572     (572)                 5.85389694E-03
    573     (573)                 2.37987970E-02
    574     (574)                 5.82955822E-03
    575     (575)                 5.91192037E-03
    576     (576)                 5.89715736E-03
    577     (577)                 5.97431468E-03
    578     (578)                 2.41771646E-02
    579     (579)                 6.03001847E-03
    580     (580)                 6.09796498E-03
    581     (581)                 6.07284935E-03
    582     (582)                 6.13769990E-03
    583     (583)                 0.0000000     
    584     (584)                 0.0000000     
    585     (585)                 6.19730339E-03
    586     (586)                 6.25186123E-03
    587     (587)                 2.46927092E-02
    588     (588)                 2.51296230E-02
    589     (589)                 0.0000000     
    590     (590)                 0.0000000     
    591     (591)                 0.0000000     
    592     (592)                 0.0000000     
    593     (593)                 0.0000000     
    594     (594)                 0.0000000     
    595     (595)                 0.0000000     
    596     (596)                 0.0000000     
    597     (597)                 2.54935846E-02
    598     (598)                 6.41591654E-03
    599     (599)                 6.45029147E-03
    600     (600)                 6.44558514E-03
    601     (601)                 6.47763782E-03
    602     (602)                 0.0000000     
    603     (603)                 0.0000000     
    604     (604)                 0.0000000     
    605     (605)                 0.0000000     
    606     (606)                 0.0000000     
    607     (607)                 0.0000000     
    608     (608)                 0.0000000     
    609     (609)                 0.0000000     
    610     (610)                 0.0000000     
    611     (611)                 6.50769118E-03
    612     (612)                 6.50604865E-03
    613     (613)                 6.53094834E-03
    614     (614)                 0.0000000     
    615     (615)                 0.0000000     
    616     (616)                 6.55244932E-03
    617     (617)                 6.57064565E-03
    618     (618)                 0.0000000     
    619     (619)                 0.0000000     
    620     (620)                 0.0000000     
    621     (621)                 0.0000000     
    622     (622)                 0.0000000     
    623     (623)                 0.0000000     
    624     (624)                 0.0000000     
    625     (625)                 0.0000000     
    626     (626)                 0.0000000     
    627     (627)                 0.0000000     
    628     (628)                 6.58561394E-03
    629     (629)                 6.59741481E-03
    630     (630)                 6.59065741E-03
    631     (631)                 6.59753133E-03
    632     (632)                 6.60609458E-03
    633     (633)                 6.61168771E-03
    634     (634)                 0.0000000     
    635     (635)                 0.0000000     
    636     (636)                 0.0000000     
    637     (637)                 0.0000000     
    638     (638)                 0.0000000     
    639     (639)                 0.0000000     
    640     (640)                 0.0000000     
    641     (641)                 0.0000000     
    642     (642)                 6.60128387E-03
    643     (643)                 6.60194912E-03
    644     (644)                 6.61421964E-03
    645     (645)                 6.61371054E-03
    646     (646)                 0.0000000     
    647     (647)                 0.0000000     
    648     (648)                 6.61017948E-03
    649     (649)                 6.60364956E-03
    650     (650)                 0.0000000     
    651     (651)                 0.0000000     
    652     (652)                 0.0000000     
    653     (653)                 0.0000000     
    654     (654)                 0.0000000     
    655     (655)                 0.0000000     
    656     (656)                 0.0000000     
    657     (657)                 0.0000000     
    658     (658)                 0.0000000     
    659     (659)                 0.0000000     
    660     (660)                 6.59415358E-03
    661     (661)                 0.0000000     
    662     (662)                 0.0000000     
    663     (663)                 0.0000000     
    664     (664)                 0.0000000     
    665     (665)                 0.0000000     
    666     (666)                 0.0000000     
    667     (667)                 0.0000000     
    668     (668)                 0.0000000     
    669     (669)                 0.0000000     
    670     (670)                 0.0000000     
    671     (671)                 0.0000000     
    672     (672)                 0.0000000     
    673     (673)                 0.0000000     
    674     (674)                 0.0000000     
    675     (675)                 0.0000000     
    676     (676)                 0.0000000     
    677     (677)                 0.0000000     
    678     (678)                 0.0000000     
    679     (679)                 0.0000000     
    680     (680)                 0.0000000     
    681     (681)                 0.0000000     
    682     (682)                 0.0000000     
    683     (683)                 0.0000000     
    684     (684)                 0.0000000     
    685     (685)                 0.0000000     
    686     (686)                 0.0000000     
    687     (687)                 0.0000000     
    688     (688)                 0.0000000     
    689     (689)                 0.0000000     
    690     (690)                 0.0000000     
    691     (691)                 0.0000000     
    692     (692)                 0.0000000     
    693     (693)                 0.0000000     
    694     (694)                 0.0000000     
    695     (695)                 0.0000000     
    696     (696)                 0.0000000     
    697     (697)                 0.0000000     
    698     (698)                 0.0000000     
    699     (699)                 0.0000000     
    700     (700)                 6.34426744E-03
    701     (701)                 0.0000000     
    702     (702)                 0.0000000     
    703     (703)                 0.0000000     
    704     (704)                 0.0000000     
    705     (705)                 0.0000000     
    706     (706)                 0.0000000     
    707     (707)                 0.0000000     
    708     (708)                 0.0000000     
    709     (709)                 0.0000000     
    710     (710)                 0.0000000     
    711     (711)                 6.34414015E-03
    712     (712)                 6.34352116E-03
    713     (713)                 0.0000000     
    714     (714)                 0.0000000     
    715     (715)                 6.34283638E-03
    716     (716)                 6.34232004E-03
    717     (717)                 0.0000000     
    718     (718)                 0.0000000     
    719     (719)                 0.0000000     
    720     (720)                 0.0000000     
    721     (721)                 0.0000000     
    722     (722)                 0.0000000     
    723     (723)                 0.0000000     
    724     (724)                 0.0000000     
    725     (725)                 0.0000000     
    726     (726)                 0.0000000     
    727     (727)                 6.34218518E-03
    728     (728)                 6.34268139E-03
    729     (729)                 6.35339782E-03
    730     (730)                 6.35594831E-03
    731     (731)                 6.34402233E-03
    732     (732)                 6.34637810E-03
    733     (733)                 0.0000000     
    734     (734)                 0.0000000     
    735     (735)                 6.36798935E-03
    736     (736)                 6.37226771E-03
    737     (737)                 0.0000000     
    738     (738)                 6.38953888E-03
    739     (739)                 6.37735804E-03
    740     (740)                 6.38321113E-03
    741     (741)                 2.54277845E-02
    742     (742)                 2.54733284E-02
    743     (743)                 6.39529924E-03
    744     (744)                 6.40142367E-03
    745     (745)                 6.38973224E-03
    746     (746)                 6.39678433E-03
    747     (747)                 2.56381965E-02
    748     (748)                 2.55348427E-02
    749     (749)                 2.56076216E-02
    750     (750)                 2.56922028E-02
    751     (751)                 2.57377282E-02
    752     (752)                 2.56844942E-02
    753     (753)                 2.57567923E-02
    754     (754)                 2.57662755E-02
    755     (755)                 2.57111912E-02
    756     (756)                 2.58153413E-02
    757     (757)                 2.57954878E-02
    758     (758)                 2.56804137E-02
    759     (759)                 2.56093043E-02
    760     (760)                 2.57999763E-02
    761     (761)                 2.57677203E-02
    762     (762)                 2.54911717E-02
    763     (763)                 6.32737722E-03
    764     (764)                 6.30076854E-03
    765     (765)                 6.35672833E-03
    766     (766)                 6.33332925E-03
    767     (767)                 2.56931434E-02
    768     (768)                 2.55715359E-02
    769     (769)                 2.50889235E-02
    770     (770)                 2.48578030E-02
    771     (771)                 2.53988097E-02
    772     (772)                 2.52367737E-02
    773     (773)                 2.44932152E-02
    774     (774)                 2.40533653E-02
    775     (775)                 2.49537549E-02
    776     (776)                 2.46103034E-02
    777     (777)                 2.35396453E-02
    778     (778)                 2.29634698E-02
    779     (779)                 2.42085416E-02
    780     (780)                 2.37580195E-02
    781     (781)                 2.23538583E-02
    782     (782)                 5.41716908E-03
    783     (783)                 5.34482442E-03
    784     (784)                 5.53801398E-03
    785     (785)                 5.47240829E-03
    786     (786)                 2.32814961E-02
    787     (787)                 5.66636190E-03
    788     (788)                 5.60828128E-03
    789     (789)                 5.80065527E-03
    790     (790)                 5.75073513E-03
    791     (791)                 5.28055150E-03
    792     (792)                 5.22738693E-03
    793     (793)                 5.41406760E-03
    794     (794)                 5.36575703E-03
    795     (795)                 5.18814420E-03
    796     (796)                 5.16507498E-03
    797     (797)                 5.33004597E-03
    798     (798)                 5.30899693E-03
    799     (799)                 2.24382498E-02
    800     (800)                 2.22035208E-02
    801     (801)                 5.15956074E-03
    802     (802)                 5.17190998E-03
    803     (803)                 5.30388074E-03
    804     (804)                 5.31498832E-03
    805     (805)                 5.22811973E-03
    806     (806)                 5.27474887E-03
    807     (807)                 5.37241498E-03
    808     (808)                 5.41464124E-03
    809     (809)                 2.23096135E-02
    810     (810)                 5.52644053E-03
    811     (811)                 5.56372727E-03
    812     (812)                 5.68803263E-03
    813     (813)                 5.71995100E-03
    814     (814)                 5.33473500E-03
    815     (815)                 5.40507739E-03
    816     (816)                 5.46900115E-03
    817     (817)                 5.53276986E-03
    818     (818)                 5.48270393E-03
    819     (819)                 5.56473857E-03
    820     (820)                 5.60316205E-03
    821     (821)                 5.67757470E-03
    822     (822)                 5.61179693E-03
    823     (823)                 5.66824841E-03
    824     (824)                 5.76120154E-03
    825     (825)                 5.80974559E-03
    826     (826)                 2.33078910E-02
    827     (827)                 2.29623326E-02
    828     (828)                 5.81453410E-03
    829     (829)                 5.89371703E-03
    830     (830)                 5.90438747E-03
    831     (831)                 5.97639231E-03
    832     (832)                 2.38117936E-02
    833     (833)                 2.43083332E-02
    834     (834)                 2.41655076E-02
    835     (835)                 6.09896116E-03
    836     (836)                 6.16114644E-03
    837     (837)                 6.16266685E-03
    838     (838)                 6.21945150E-03
    839     (839)                 2.47693329E-02
    840     (840)                 2.51474041E-02
    841     (841)                 2.50850010E-02
    842     (842)                 2.54599330E-02
    843     (843)                 2.55056273E-02
    844     (844)                 2.58114149E-02
    845     (845)                 2.57722283E-02
    846     (846)                 2.60264888E-02
    847     (847)                 2.60669034E-02
    848     (848)                 2.62745766E-02
    849     (849)                 2.62267547E-02
    850     (850)                 2.63761326E-02
    851     (851)                 2.64365669E-02
    852     (852)                 2.65543432E-02
    853     (853)                 2.64767040E-02
    854     (854)                 2.65296019E-02
    855     (855)                 2.66286029E-02
    856     (856)                 2.66592959E-02
    857     (857)                 2.65352179E-02
    858     (858)                 2.64935582E-02
    859     (859)                 2.66457762E-02
    860     (860)                 2.65871101E-02
    861     (861)                 6.60312684E-03
    862     (862)                 6.58963804E-03
    863     (863)                 6.61270864E-03
    864     (864)                 6.59819526E-03
    865     (865)                 0.0000000     
    866     (866)                 0.0000000     
    867     (867)                 6.58083147E-03
    868     (868)                 0.0000000     
    869     (869)                 2.64825969E-02
    870     (870)                 6.58912143E-03
    871     (871)                 0.0000000     
    872     (872)                 6.59820016E-03
    873     (873)                 6.57624846E-03
    874     (874)                 0.0000000     
    875     (875)                 0.0000000     
    876     (876)                 0.0000000     
    877     (877)                 0.0000000     
    878     (878)                 0.0000000     
    879     (879)                 0.0000000     
    880     (880)                 0.0000000     
    881     (881)                 0.0000000     
    882     (882)                 0.0000000     
    883     (883)                 0.0000000     
    884     (884)                 0.0000000     
    885     (885)                 0.0000000     
    886     (886)                 0.0000000     
    887     (887)                 0.0000000     
    888     (888)                 0.0000000     
    889     (889)                 0.0000000     
    890     (890)                 0.0000000     
    891     (891)                 0.0000000     
    892     (892)                 0.0000000     
    893     (893)                 0.0000000     
    894     (894)                 0.0000000     
    895     (895)                 0.0000000     
    896     (896)                 0.0000000     
    897     (897)                 0.0000000     
    898     (898)                 0.0000000     
    899     (899)                 0.0000000     
    900     (900)                 0.0000000     
    901     (901)                 0.0000000     
    902     (902)                 0.0000000     
    903     (903)                 0.0000000     
    904     (904)                 0.0000000     
    905     (905)                 0.0000000     
    906     (906)                 0.0000000     
    907     (907)                 0.0000000     
    908     (908)                 0.0000000     
    909     (909)                 0.0000000     
    910     (910)                 0.0000000     
    911     (911)                 0.0000000     
    912     (912)                 0.0000000     
    913     (913)                 0.0000000     
    914     (914)                 0.0000000     
    915     (915)                 0.0000000     
    916     (916)                 0.0000000     
    917     (917)                 0.0000000     
    918     (918)                 0.0000000     
    919     (919)                 0.0000000     
    920     (920)                 0.0000000     
    921     (921)                 0.0000000     
    922     (922)                 0.0000000     
    923     (923)                 0.0000000     
    924     (924)                 0.0000000     
    925     (925)                 0.0000000     
    926     (926)                 0.0000000     
    927     (927)                 0.0000000     
    928     (928)                 0.0000000     
    929     (929)                 0.0000000     
    930     (930)                 0.0000000     
    931     (931)                 0.0000000     
    932     (932)                 0.0000000     
    933     (933)                 0.0000000     
    934     (934)                 0.0000000     
    935     (935)                 0.0000000     
    936     (936)                 0.0000000     
    937     (937)                 0.0000000     
    938     (938)                 0.0000000     
    939     (939)                 0.0000000     
    940     (940)                 6.33259244E-03
    941     (941)                 6.15630677E-03
    942     (942)                 6.33145352E-03
    943     (943)                 0.0000000     
    944     (944)                 0.0000000     
    945     (945)                 0.0000000     
    946     (946)                 0.0000000     
    947     (947)                 0.0000000     
    948     (948)                 6.33041179E-03
    949     (949)                 0.0000000     
    950     (950)                 6.32949577E-03
    951     (951)                 6.33665040E-03
    952     (952)                 6.33894724E-03
    953     (953)                 6.33463611E-03
    954     (954)                 6.33596268E-03
    955     (955)                 2.53499981E-02
    956     (956)                 2.53268268E-02
    957     (957)                 2.53114948E-02
    958     (958)                 2.53370681E-02
    959     (959)                 2.53202255E-02
    960     (960)                 2.52792081E-02
    961     (961)                 2.52433595E-02
    962     (962)                 2.53102599E-02
    963     (963)                 2.53157469E-02
    964     (964)                 2.52191689E-02
    965     (965)                 2.52154633E-02
    966     (966)                 2.53431435E-02
    967     (967)                 2.53950770E-02
    968     (968)                 2.52410155E-02
    969     (969)                 2.52992834E-02
    970     (970)                 0.10192276    
    971     (971)                 2.56643264E-02
    972     (972)                 2.57657474E-02
    973     (973)                 2.56315262E-02
    974     (974)                 2.57643688E-02
    975     (975)                 0.10368787    
    976     (976)                 0.10397084    
    977     (977)                 0.10393181    
    978     (978)                 2.57021340E-02
    979     (979)                 2.56293391E-02
    980     (980)                 2.60230359E-02
    981     (981)                 2.60256875E-02
    982     (982)                 6.34295322E-03
    983     (983)                 6.31273148E-03
    984     (984)                 6.40064436E-03
    985     (985)                 6.37653514E-03
    986     (986)                 6.27952878E-03
    987     (987)                 6.24343300E-03
    988     (988)                 6.35000652E-03
    989     (989)                 6.32117181E-03
    990     (990)                 2.59204540E-02
    991     (991)                 2.57890964E-02
    992     (992)                 2.49159996E-02
    993     (993)                 2.46047622E-02
    994     (994)                 2.56366011E-02
    995     (995)                 6.32639927E-03
    996     (996)                 6.30030156E-03
    997     (997)                 6.42959004E-03
    998     (998)                 6.41296436E-03
    999     (999)                 2.42777473E-02
    1000    (1000)                5.93926487E-03
    1001    (1001)                5.89797678E-03
    1002    (1002)                6.08054758E-03
    1003    (1003)                6.04819482E-03
    1004    (1004)                6.27396260E-03
    1005    (1005)                6.24793770E-03
    1006    (1006)                6.39638918E-03
    1007    (1007)                6.38020219E-03
    1008    (1008)                6.22289716E-03
    1009    (1009)                6.19961835E-03
    1010    (1010)                6.36478602E-03
    1011    (1011)                6.35056499E-03
    1012    (1012)                2.37026235E-02
    1013    (1013)                2.35418714E-02
    1014    (1014)                2.50054000E-02
    1015    (1015)                6.14893327E-03
    1016    (1016)                6.18605287E-03
    1017    (1017)                6.31960116E-03
    1018    (1018)                6.36070607E-03
    1019    (1019)                2.36818449E-02
    1020    (1020)                5.85491935E-03
    1021    (1021)                5.88115736E-03
    1022    (1022)                6.02481419E-03
    1023    (1023)                6.04517848E-03
    1024    (1024)                2.50866987E-02
    1025    (1025)                6.19549873E-03
    1026    (1026)                6.20991062E-03
    1027    (1027)                6.36489110E-03
    1028    (1028)                6.37337763E-03
    1029    (1029)                5.91520588E-03
    1030    (1030)                5.95541752E-03
    1031    (1031)                6.07179031E-03
    1032    (1032)                6.10341187E-03
    1033    (1033)                2.43615766E-02
    1034    (1034)                6.22899444E-03
    1035    (1035)                6.25192986E-03
    1036    (1036)                6.38497421E-03
    1037    (1037)                6.39927703E-03
    1038    (1038)                2.54339051E-02
    1039    (1039)                2.47142519E-02
    1040    (1040)                2.50679696E-02
    1041    (1041)                2.56302691E-02
    1042    (1042)                6.39620513E-03
    1043    (1043)                6.42649114E-03
    1044    (1044)                6.49608949E-03
    1045    (1045)                6.50991695E-03
    1046    (1046)                2.53697752E-02
    1047    (1047)                2.56733525E-02
    1048    (1048)                6.44814783E-03
    1049    (1049)                6.47688262E-03
    1050    (1050)                6.53145505E-03
    1051    (1051)                6.55277982E-03
    1052    (1052)                2.62041249E-02
    1053    (1053)                0.10505668    
    1054    (1054)                0.10638176    
    1055    (1055)                0.10720331    
    1056    (1056)                0.10748164    
    1057    (1057)                0.10715813    
    1058    (1058)                2.65712472E-02
    1059    (1059)                6.60809292E-03
    1060    (1060)                6.58537236E-03
    1061    (1061)                6.61881691E-03
    1062    (1062)                6.59543427E-03
    1063    (1063)                2.66708910E-02
    1064    (1064)                2.64988971E-02
    1065    (1065)                0.0000000     
    1066    (1066)                0.0000000     
    1067    (1067)                6.56942700E-03
    1068    (1068)                6.54094559E-03
    1069    (1069)                0.0000000     
    1070    (1070)                0.0000000     
    1071    (1071)                0.0000000     
    1072    (1072)                0.0000000     
    1073    (1073)                2.62851125E-02
    1074    (1074)                6.52067615E-03
    1075    (1075)                6.48770027E-03
    1076    (1076)                6.53170327E-03
    1077    (1077)                6.49839591E-03
    1078    (1078)                0.0000000     
    1079    (1079)                0.0000000     
    1080    (1080)                0.0000000     
    1081    (1081)                0.0000000     
    1082    (1082)                0.0000000     
    1083    (1083)                0.0000000     
    1084    (1084)                0.0000000     
    1085    (1085)                0.0000000     
    1086    (1086)                0.0000000     
    1087    (1087)                0.0000000     
    1088    (1088)                6.46346854E-03
    1089    (1089)                0.0000000     
    1090    (1090)                0.0000000     
    1091    (1091)                0.0000000     
    1092    (1092)                0.0000000     
    1093    (1093)                0.0000000     
    1094    (1094)                0.0000000     
    1095    (1095)                0.0000000     
    1096    (1096)                0.0000000     
    1097    (1097)                0.0000000     
    1098    (1098)                0.0000000     
    1099    (1099)                0.0000000     
    1100    (1100)                0.0000000     
    1101    (1101)                0.0000000     
    1102    (1102)                0.0000000     
    1103    (1103)                0.0000000     
    1104    (1104)                0.0000000     
    1105    (1105)                0.0000000     
    1106    (1106)                0.0000000     
    1107    (1107)                0.0000000     
    1108    (1108)                0.0000000     
    1109    (1109)                0.0000000     
    1110    (1110)                0.0000000     
    1111    (1111)                0.0000000     
    1112    (1112)                0.0000000     
    1113    (1113)                0.0000000     
    1114    (1114)                0.0000000     
    1115    (1115)                0.0000000     
    1116    (1116)                0.0000000     
    1117    (1117)                0.0000000     
    1118    (1118)                0.0000000     
    1119    (1119)                0.0000000     
    1120    (1120)                0.0000000     
    1121    (1121)                0.0000000     
    1122    (1122)                0.0000000     
    1123    (1123)                0.0000000     
    1124    (1124)                0.0000000     
    1125    (1125)                0.0000000     
    1126    (1126)                0.0000000     
    1127    (1127)                0.0000000     
    1128    (1128)                0.0000000     
    1129    (1129)                0.0000000     
    1130    (1130)                0.0000000     
    1131    (1131)                0.0000000     
    1132    (1132)                0.0000000     
    1133    (1133)                0.0000000     
    1134    (1134)                0.0000000     
    1135    (1135)                0.0000000     
    1136    (1136)                0.0000000     
    1137    (1137)                0.0000000     
    1138    (1138)                0.0000000     
    1139    (1139)                0.0000000     
    1140    (1140)                0.0000000     
    1141    (1141)                0.0000000     
    1142    (1142)                0.0000000     
    1143    (1143)                0.0000000     
    1144    (1144)                0.0000000     
    1145    (1145)                0.0000000     
    1146    (1146)                0.0000000     
    1147    (1147)                0.0000000     
    1148    (1148)                0.0000000     
    1149    (1149)                0.0000000     
    1150    (1150)                0.0000000     
    1151    (1151)                0.0000000     
    1152    (1152)                0.0000000     
    1153    (1153)                0.0000000     
    1154    (1154)                0.0000000     
    1155    (1155)                0.0000000     
    1156    (1156)                0.0000000     
    1157    (1157)                0.0000000     
    1158    (1158)                0.0000000     
    1159    (1159)                0.0000000     
    1160    (1160)                0.0000000     
    1161    (1161)                0.0000000     
    1162    (1162)                0.0000000     
    1163    (1163)                0.0000000     
    1164    (1164)                0.0000000     
    1165    (1165)                0.0000000     
    1166    (1166)                0.0000000     
    1167    (1167)                0.0000000     
    1168    (1168)                0.0000000     
    1169    (1169)                0.0000000     
    1170    (1170)                0.0000000     
    1171    (1171)                0.0000000     
    1172    (1172)                0.0000000     
    1173    (1173)                0.0000000     
    1174    (1174)                0.0000000     
    1175    (1175)                0.0000000     
    1176    (1176)                0.0000000     
    1177    (1177)                0.0000000     
    1178    (1178)                0.0000000     
    1179    (1179)                0.0000000     
    1180    (1180)                0.0000000     
    1181    (1181)                0.0000000     
    1182    (1182)                0.0000000     
    1183    (1183)                0.0000000     
    1184    (1184)                0.0000000     
    1185    (1185)                0.0000000     
    1186    (1186)                0.0000000     
    1187    (1187)                0.0000000     
    1188    (1188)                0.0000000     
    1189    (1189)                0.0000000     
    1190    (1190)                0.0000000     
    1191    (1191)                0.0000000     
    1192    (1192)                0.0000000     
    1193    (1193)                0.0000000     
    1194    (1194)                0.0000000     
    1195    (1195)                0.0000000     
    1196    (1196)                0.0000000     
    1197    (1197)                0.0000000     
    1198    (1198)                0.0000000     
    1199    (1199)                6.32874123E-03
    1200    (1200)                6.32674305E-03
    1201    (1201)                6.32819228E-03
    1202    (1202)                0.0000000     
    1203    (1203)                0.0000000     
    1204    (1204)                0.0000000     
    1205    (1205)                6.32653081E-03
    1206    (1206)                6.32762647E-03
    1207    (1207)                6.32790276E-03
    1208    (1208)                6.32890411E-03
    1209    (1209)                6.32793721E-03
    1210    (1210)                2.53066945E-02
    1211    (1211)                2.52697972E-02
    1212    (1212)                6.32535537E-03
    1213    (1213)                6.32038373E-03
    1214    (1214)                6.32399713E-03
    1215    (1215)                6.31750296E-03
    1216    (1216)                6.31343515E-03
    1217    (1217)                6.30500228E-03
    1218    (1218)                6.30892740E-03
    1219    (1219)                6.29879540E-03
    1220    (1220)                2.52146306E-02
    1221    (1221)                6.29796064E-03
    1222    (1222)                6.29197928E-03
    1223    (1223)                6.28731327E-03
    1224    (1224)                6.27996660E-03
    1225    (1225)                6.29561792E-03
    1226    (1226)                6.28584537E-03
    1227    (1227)                6.28767827E-03
    1228    (1228)                6.27618428E-03
    1229    (1229)                6.27626520E-03
    1230    (1230)                6.26745825E-03
    1231    (1231)                6.26494378E-03
    1232    (1232)                6.25459061E-03
    1233    (1233)                2.51147937E-02
    1234    (1234)                2.50996338E-02
    1235    (1235)                6.26030466E-03
    1236    (1236)                6.25481597E-03
    1237    (1237)                6.24573930E-03
    1238    (1238)                6.23936764E-03
    1239    (1239)                2.49709241E-02
    1240    (1240)                6.28596091E-03
    1241    (1241)                6.29134369E-03
    1242    (1242)                6.27015878E-03
    1243    (1243)                6.27563256E-03
    1244    (1244)                6.29923349E-03
    1245    (1245)                6.30956864E-03
    1246    (1246)                6.28392926E-03
    1247    (1247)                6.29498060E-03
    1248    (1248)                2.49895635E-02
    1249    (1249)                2.50608814E-02
    1250    (1250)                2.52916555E-02
    1251    (1251)                2.54289193E-02
    1252    (1252)                2.51823761E-02
    1253    (1253)                6.33114430E-03
    1254    (1254)                6.35251979E-03
    1255    (1255)                6.31927594E-03
    1256    (1256)                6.34248803E-03
    1257    (1257)                6.39010219E-03
    1258    (1258)                6.40963716E-03
    1259    (1259)                6.38294555E-03
    1260    (1260)                6.40452371E-03
    1261    (1261)                6.42941241E-03
    1262    (1262)                6.44904583E-03
    1263    (1263)                6.42645762E-03
    1264    (1264)                6.44834244E-03
    1265    (1265)                6.37527681E-03
    1266    (1266)                6.39895361E-03
    1267    (1267)                6.36725379E-03
    1268    (1268)                6.39307489E-03
    1269    (1269)                6.42309647E-03
    1270    (1270)                6.44727595E-03
    1271    (1271)                6.41946555E-03
    1272    (1272)                6.44597055E-03
    1273    (1273)                2.59156375E-02
    1274    (1274)                2.60140919E-02
    1275    (1275)                2.59357287E-02
    1276    (1276)                6.52740863E-03
    1277    (1277)                6.54865264E-03
    1278    (1278)                6.53334433E-03
    1279    (1279)                6.55712600E-03
    1280    (1280)                2.61361502E-02
    1281    (1281)                2.62316796E-02
    1282    (1282)                2.62386925E-02
    1283    (1283)                2.63775264E-02
    1284    (1284)                2.62990879E-02
    1285    (1285)                2.63209116E-02
    1286    (1286)                2.64716596E-02
    1287    (1287)                6.62192229E-03
    1288    (1288)                6.63099128E-03
    1289    (1289)                6.65043004E-03
    1290    (1290)                6.66291319E-03
    1291    (1291)                2.63395262E-02
    1292    (1292)                2.64167446E-02
    1293    (1293)                6.63900527E-03
    1294    (1294)                6.64616473E-03
    1295    (1295)                6.67459259E-03
    1296    (1296)                6.68570722E-03
    1297    (1297)                2.67946103E-02
    1298    (1298)                0.10658554    
    1299    (1299)                2.63464884E-02
    1300    (1300)                2.63214919E-02
    1301    (1301)                2.70248219E-02
    1302    (1302)                2.71322688E-02
    1303    (1303)                6.51726341E-03
    1304    (1304)                6.51075013E-03
    1305    (1305)                6.63554632E-03
    1306    (1306)                6.63841730E-03
    1307    (1307)                2.62926638E-02
    1308    (1308)                2.72565404E-02
    1309    (1309)                2.73853865E-02
    1310    (1310)                2.62865771E-02
    1311    (1311)                6.53522833E-03
    1312    (1312)                6.53209700E-03
    1313    (1313)                6.69898274E-03
    1314    (1314)                6.69847891E-03
    1315    (1315)                2.74958222E-02
    1316    (1316)                2.77372746E-02
    1317    (1317)                6.53031896E-03
    1318    (1318)                6.52996201E-03
    1319    (1319)                6.69716780E-03
    1320    (1320)                6.69508794E-03
    1321    (1321)                2.64492033E-02
    1322    (1322)                2.77317141E-02
    1323    (1323)                2.76683641E-02
    1324    (1324)                2.64549630E-02
    1325    (1325)                2.64786285E-02
    1326    (1326)                2.75673539E-02
    1327    (1327)                2.74574023E-02
    1328    (1328)                2.65232990E-02
    1329    (1329)                6.59429888E-03
    1330    (1330)                6.59978207E-03
    1331    (1331)                6.68254851E-03
    1332    (1332)                6.68746643E-03
    1333    (1333)                2.73626107E-02
    1334    (1334)                6.77521082E-03
    1335    (1335)                6.77233445E-03
    1336    (1336)                6.86406611E-03
    1337    (1337)                6.85382755E-03
    1338    (1338)                6.61345927E-03
    1339    (1339)                6.62752869E-03
    1340    (1340)                6.69353906E-03
    1341    (1341)                6.70058522E-03
    1342    (1342)                2.67236808E-02
    1343    (1343)                6.77113382E-03
    1344    (1344)                6.77145610E-03
    1345    (1345)                6.84574799E-03
    1346    (1346)                6.83970230E-03
    1347    (1347)                2.72178511E-02
    1348    (1348)                0.10819830    
    1349    (1349)                0.10859094    
    1350    (1350)                0.10880658    
    1351    (1351)                0.10870022    
    1352    (1352)                0.10814400    
    1353    (1353)                0.10702133    
    1354    (1354)                2.63893580E-02
    1355    (1355)                2.61372449E-02
    1356    (1356)                2.65088389E-02
    1357    (1357)                2.62586835E-02
    1358    (1358)                6.47556122E-03
    1359    (1359)                6.43932656E-03
    1360    (1360)                6.48936142E-03
    1361    (1361)                6.45316278E-03
    1362    (1362)                0.0000000     
    1363    (1363)                0.0000000     
    1364    (1364)                6.41635332E-03
    1365    (1365)                6.37954473E-03
    1366    (1366)                2.59814889E-02
    1367    (1367)                2.56908075E-02
    1368    (1368)                0.0000000     
    1369    (1369)                0.0000000     
    1370    (1370)                6.34341428E-03
    1371    (1371)                6.30868207E-03
    1372    (1372)                0.0000000     
    1373    (1373)                0.0000000     
    1374    (1374)                6.27608159E-03
    1375    (1375)                0.0000000     
    1376    (1376)                2.54054562E-02
    1377    (1377)                2.51475859E-02
    1378    (1378)                0.0000000     
    1379    (1379)                0.0000000     
    1380    (1380)                0.0000000     
    1381    (1381)                6.19789195E-03
    1382    (1382)                0.0000000     
    1383    (1383)                0.0000000     
    1384    (1384)                6.18023167E-03
    1385    (1385)                6.16740502E-03
    1386    (1386)                2.49391712E-02
    1387    (1387)                2.47978245E-02
    1388    (1388)                0.0000000     
    1389    (1389)                0.0000000     
    1390    (1390)                0.0000000     
    1391    (1391)                0.0000000     
    1392    (1392)                0.0000000     
    1393    (1393)                0.0000000     
    1394    (1394)                0.0000000     
    1395    (1395)                0.0000000     
    1396    (1396)                6.17611445E-03
    1397    (1397)                0.0000000     
    1398    (1398)                6.19567985E-03
    1399    (1399)                6.19244332E-03
    1400    (1400)                0.0000000     
    1401    (1401)                0.0000000     
    1402    (1402)                6.19398768E-03
    1403    (1403)                0.0000000     
    1404    (1404)                0.0000000     
    1405    (1405)                0.0000000     
    1406    (1406)                0.0000000     
    1407    (1407)                0.0000000     
    1408    (1408)                0.0000000     
    1409    (1409)                0.0000000     
[...]
   20767    (20767)               4.12562956E-03
   20768    (20768)               4.11973629E-03
   20769    (20769)               4.12981738E-03
   20770    (20770)               4.12209168E-03
   20771    (20771)               4.11884421E-03
   20772    (20772)               4.12646591E-03
   20773    (20773)               4.12339350E-03
   20774    (20774)               4.13393144E-03
   20775    (20775)               4.13075555E-03
   20776    (20776)               4.12784778E-03
   20777    (20777)               4.13495905E-03
   20778    (20778)               4.13220620E-03
   20779    (20779)               4.11591339E-03
   20780    (20780)               4.11332381E-03
   20781    (20781)               4.12062414E-03
   20782    (20782)               4.11818023E-03
   20783    (20783)               4.11109784E-03
   20784    (20784)               4.10925500E-03
   20785    (20785)               4.11608215E-03
   20786    (20786)               4.11434767E-03
   20787    (20787)               4.12523010E-03
   20788    (20788)               4.12292299E-03
   20789    (20789)               4.12973111E-03
   20790    (20790)               4.12755253E-03
   20791    (20791)               4.12094502E-03
   20792    (20792)               4.11931244E-03
   20793    (20793)               4.12568746E-03
   20794    (20794)               4.12415076E-03
   20795    (20795)               4.10781146E-03
   20796    (20796)               4.10677959E-03
   20797    (20797)               4.11299155E-03
   20798    (20798)               4.11202516E-03
   20799    (20799)               4.10616765E-03
   20800    (20800)               4.10597965E-03
   20801    (20801)               4.11145622E-03
   20802    (20802)               4.11128872E-03
   20803    (20803)               4.11803875E-03
   20804    (20804)               4.11713444E-03
   20805    (20805)               4.12295483E-03
   20806    (20806)               4.12210936E-03
   20807    (20807)               4.11660674E-03
   20808    (20808)               4.11645958E-03
   20809    (20809)               4.12162116E-03
   20810    (20810)               4.12149406E-03
   20811    (20811)               4.10621541E-03
   20812    (20812)               4.10141689E-03
   20813    (20813)               4.11152290E-03
   20814    (20814)               4.10653543E-03
   20815    (20815)               4.10260702E-03
   20816    (20816)               4.10418744E-03
   20817    (20817)               4.10768615E-03
   20818    (20818)               4.10920920E-03
   20819    (20819)               4.11669357E-03
   20820    (20820)               4.11152569E-03
   20821    (20821)               4.12172894E-03
   20822    (20822)               4.11638859E-03
   20823    (20823)               4.11264040E-03
   20824    (20824)               4.11411044E-03
   20825    (20825)               4.11747034E-03
   20826    (20826)               4.11889127E-03
   20827    (20827)               4.10614607E-03
   20828    (20828)               4.10846893E-03
   20829    (20829)               4.11109408E-03
   20830    (20830)               4.11332843E-03
   20831    (20831)               4.11114072E-03
   20832    (20832)               4.11414534E-03
   20833    (20833)               4.11589862E-03
   20834    (20834)               4.11879010E-03
   20835    (20835)               4.11592661E-03
   20836    (20836)               4.11807802E-03
   20837    (20837)               4.12064336E-03
   20838    (20838)               4.12271694E-03
   20839    (20839)               4.12055244E-03
   20840    (20840)               4.12333676E-03
   20841    (20841)               4.12510108E-03
   20842    (20842)               4.12778389E-03
   20843    (20843)               4.11746636E-03
   20844    (20844)               4.12108737E-03
   20845    (20845)               4.12198787E-03
   20846    (20846)               4.12547681E-03
   20847    (20847)               4.12499225E-03
   20848    (20848)               4.12916539E-03
   20849    (20849)               4.12924188E-03
   20850    (20850)               4.13326835E-03
   20851    (20851)               4.12641728E-03
   20852    (20852)               4.12978002E-03
   20853    (20853)               4.13075286E-03
   20854    (20854)               4.13399511E-03
   20855    (20855)               4.13341098E-03
   20856    (20856)               4.13729629E-03
   20857    (20857)               4.13749757E-03
   20858    (20858)               4.14124721E-03
   20859    (20859)               4.13359176E-03
   20860    (20860)               4.13825689E-03
   20861    (20861)               4.13754187E-03
   20862    (20862)               4.14204855E-03
   20863    (20863)               4.14314693E-03
   20864    (20864)               4.14824845E-03
   20865    (20865)               4.14677490E-03
   20866    (20866)               4.15170780E-03
   20867    (20867)               4.14142232E-03
   20868    (20868)               4.14577571E-03
   20869    (20869)               4.14523108E-03
   20870    (20870)               4.14943641E-03
   20871    (20871)               4.15034342E-03
   20872    (20872)               4.15511268E-03
   20873    (20873)               4.15385062E-03
   20874    (20874)               4.15846132E-03
   20875    (20875)               4.15354840E-03
   20876    (20876)               4.15903395E-03
   20877    (20877)               4.15683439E-03
   20878    (20878)               4.16214200E-03
   20879    (20879)               4.16469234E-03
   20880    (20880)               4.17051074E-03
   20881    (20881)               4.16761803E-03
   20882    (20882)               4.17324979E-03
   20883    (20883)               4.16007088E-03
   20884    (20884)               4.16520558E-03
   20885    (20885)               4.16325622E-03
   20886    (20886)               4.17050438E-03
   20887    (20887)               4.17595480E-03
   20888    (20888)               4.17647615E-03
   20889    (20889)               4.18257526E-03
   20890    (20890)               4.17902445E-03
   20891    (20891)               4.18492897E-03
   20892    (20892)               4.18879442E-03
   20893    (20893)               4.19511951E-03
   20894    (20894)               4.19094997E-03
   20895    (20895)               4.19707373E-03
   20896    (20896)               4.18154424E-03
   20897    (20897)               4.18725991E-03
   20898    (20898)               4.18403414E-03
   20899    (20899)               4.18956670E-03
   20900    (20900)               4.19308876E-03
   20901    (20901)               4.19901745E-03
   20902    (20902)               4.19520935E-03
   20903    (20903)               4.20094914E-03
   20904    (20904)               0.0000000     
   20905    (20905)               4.13412754E-03
   20906    (20906)               4.13206981E-03
   20907    (20907)               4.13842017E-03
   20908    (20908)               4.13647614E-03
   20909    (20909)               4.13031091E-03
   20910    (20910)               4.12886447E-03
   20911    (20911)               4.13481715E-03
   20912    (20912)               4.13345574E-03
   20913    (20913)               4.14077317E-03
   20914    (20914)               4.14496276E-03
   20915    (20915)               4.13920825E-03
   20916    (20916)               4.13792699E-03
   20917    (20917)               4.14348648E-03
   20918    (20918)               4.14228076E-03
   20919    (20919)               4.12774192E-03
   20920    (20920)               4.12695223E-03
   20921    (20921)               4.13240246E-03
   20922    (20922)               4.13166563E-03
   20923    (20923)               4.12650180E-03
   20924    (20924)               4.12639437E-03
   20925    (20925)               4.13125128E-03
   20926    (20926)               4.13116303E-03
   20927    (20927)               4.13693910E-03
   20928    (20928)               4.13625236E-03
   20929    (20929)               4.14135465E-03
   20930    (20930)               4.14071535E-03
   20931    (20931)               4.13587242E-03
   20932    (20932)               4.13580281E-03
   20933    (20933)               4.14036821E-03
   20934    (20934)               4.14031663E-03
   20935    (20935)               4.12663103E-03
   20936    (20936)               4.12112561E-03
   20937    (20937)               4.13140215E-03
   20938    (20938)               4.12573856E-03
   20939    (20939)               4.12217706E-03
   20940    (20940)               4.12355241E-03
   20941    (20941)               4.12676208E-03
   20942    (20942)               4.12809500E-03
   20943    (20943)               4.13604490E-03
   20944    (20944)               4.13022958E-03
   20945    (20945)               4.14056205E-03
   20946    (20946)               4.13460101E-03
   20947    (20947)               4.13122724E-03
   20948    (20948)               4.13252060E-03
   20949    (20949)               4.13557468E-03
   20950    (20950)               4.13683102E-03
   20951    (20951)               4.12524462E-03
   20952    (20952)               4.12724510E-03
   20953    (20953)               4.12973116E-03
   20954    (20954)               4.13166289E-03
   20955    (20955)               4.12954404E-03
   20956    (20956)               4.13213068E-03
   20957    (20957)               4.13388139E-03
   20958    (20958)               4.13637688E-03
   20959    (20959)               4.13410418E-03
   20960    (20960)               4.13597118E-03
   20961    (20961)               4.13836521E-03
   20962    (20962)               4.14017117E-03
   20963    (20963)               4.13811365E-03
   20964    (20964)               4.14052270E-03
   20965    (20965)               4.14224170E-03
   20966    (20966)               4.14456871E-03
   20967    (20967)               4.13499357E-03
   20968    (20968)               4.13812081E-03
   20969    (20969)               4.13913887E-03
   20970    (20970)               4.14215637E-03
   20971    (20971)               4.14150023E-03
   20972    (20972)               4.14511960E-03
   20973    (20973)               4.14541805E-03
   20974    (20974)               4.14891242E-03
   20975    (20975)               4.14318870E-03
   20976    (20976)               4.14610150E-03
   20977    (20977)               4.14714338E-03
   20978    (20978)               4.14995630E-03
   20979    (20979)               4.14925055E-03
   20980    (20980)               4.15262505E-03
   20981    (20981)               4.15299763E-03
   20982    (20982)               4.15625724E-03
   20983    (20983)               0.0000000     
   20984    (20984)               0.0000000     
   20985    (20985)               4.19184805E-03
   20986    (20986)               4.19410281E-03
   20987    (20987)               4.19731039E-03
   20988    (20988)               4.20286736E-03
   20989    (20989)               4.19939064E-03
   20990    (20990)               4.20477075E-03
   20991    (20991)               4.19632993E-03
   20992    (20992)               4.19852846E-03
   20993    (20993)               4.20144897E-03
   20994    (20994)               4.20665804E-03
   20995    (20995)               4.20348432E-03
   20996    (20996)               4.20852809E-03
   20997    (20997)               0.0000000     
   20998    (20998)               0.0000000     
   20999    (20999)               0.0000000     
   21000    (21000)               4.14565201E-03
   21001    (21001)               4.14505765E-03
   21002    (21002)               4.14983419E-03
   21003    (21003)               4.14928238E-03
   21004    (21004)               4.14474173E-03
   21005    (21005)               4.14470753E-03
   21006    (21006)               4.14899615E-03
   21007    (21007)               4.14897865E-03
   21008    (21008)               4.15390421E-03
   21009    (21009)               4.15339268E-03
   21010    (21010)               4.15739171E-03
   21011    (21011)               4.15313465E-03
   21012    (21012)               4.15313316E-03
   21013    (21013)               4.15716046E-03
   21014    (21014)               4.15717426E-03
   21015    (21015)               4.14495656E-03
   21016    (21016)               4.13885542E-03
   21017    (21017)               4.14923143E-03
   21018    (21018)               4.14299545E-03
   21019    (21019)               4.13980671E-03
   21020    (21020)               4.14102833E-03
   21021    (21021)               4.14392581E-03
   21022    (21022)               4.14511480E-03
   21023    (21023)               4.15338977E-03
   21024    (21024)               4.14702389E-03
   21025    (21025)               4.15743468E-03
   21026    (21026)               4.15094355E-03
   21027    (21027)               4.14793458E-03
   21028    (21028)               4.14909283E-03
   21029    (21029)               4.15183572E-03
   21030    (21030)               4.15296491E-03
   21031    (21031)               4.14251604E-03
   21032    (21032)               4.14426434E-03
   21033    (21033)               4.14655866E-03
   21034    (21034)               4.14825245E-03
   21035    (21035)               4.14626676E-03
   21036    (21036)               4.14851589E-03
   21037    (21037)               4.15019029E-03
   21038    (21038)               4.15236543E-03
   21039    (21039)               4.15049525E-03
   21040    (21040)               4.15213743E-03
   21041    (21041)               4.15432812E-03
   21042    (21042)               4.15592134E-03
   21043    (21043)               4.15401399E-03
   21044    (21044)               4.15611874E-03
   21045    (21045)               4.15773969E-03
   21046    (21046)               4.15977747E-03
   21047    (21047)               4.15100362E-03
   21048    (21048)               4.15372123E-03
   21049    (21049)               4.15477035E-03
   21050    (21050)               4.15739700E-03
   21051    (21051)               4.15665955E-03
   21052    (21052)               4.15980907E-03
   21053    (21053)               4.16023683E-03
   21054    (21054)               4.16328089E-03
   21055    (21055)               4.15844478E-03
   21056    (21056)               4.16098460E-03
   21057    (21057)               4.16202830E-03
   21058    (21058)               4.16448522E-03
   21059    (21059)               4.16373023E-03
   21060    (21060)               0.0000000     
   21061    (21061)               4.20069761E-03
   21062    (21062)               4.20283667E-03
   21063    (21063)               4.20549579E-03
   21064    (21064)               4.21037984E-03
   21065    (21065)               4.20748254E-03
   21066    (21066)               4.21221234E-03
   21067    (21067)               4.20494503E-03
   21068    (21068)               4.20702223E-03
   21069    (21069)               4.20944386E-03
   21070    (21070)               4.21402472E-03
   21071    (21071)               4.21137913E-03
   21072    (21072)               4.21581622E-03
   21073    (21073)               4.21533868E-03
   21074    (21074)               4.22036109E-03
   21075    (21075)               4.21701536E-03
   21076    (21076)               4.22188082E-03
   21077    (21077)               4.22543585E-03
   21078    (21078)               4.22679791E-03
   21079    (21079)               4.21867729E-03
   21080    (21080)               4.22339123E-03
   21081    (21081)               4.22032358E-03
   21082    (21082)               4.22489125E-03
   21083    (21083)               4.22815612E-03
   21084    (21084)               4.22950922E-03
   21085    (21085)               0.0000000     
   21086    (21086)               0.0000000     
   21087    (21087)               4.16136933E-03
   21088    (21088)               4.15475729E-03
   21089    (21089)               4.16519684E-03
   21090    (21090)               4.15846800E-03
   21091    (21091)               4.15563194E-03
   21092    (21092)               4.15673363E-03
   21093    (21093)               4.15932603E-03
   21094    (21094)               4.16040159E-03
   21095    (21095)               4.16892032E-03
   21096    (21096)               4.16207855E-03
   21097    (21097)               4.17254283E-03
   21098    (21098)               4.16559179E-03
   21099    (21099)               4.16292075E-03
   21100    (21100)               4.16397148E-03
   21101    (21101)               4.16641887E-03
   21102    (21102)               4.16744593E-03
   21103    (21103)               4.15805965E-03
   21104    (21104)               4.15960639E-03
   21105    (21105)               4.16169230E-03
   21106    (21106)               4.16319484E-03
   21107    (21107)               4.16136937E-03
   21108    (21108)               4.16334336E-03
   21109    (21109)               4.16490512E-03
   21110    (21110)               4.16681831E-03
   21111    (21111)               4.16522858E-03
   21112    (21112)               4.16668903E-03
   21113    (21113)               4.16867100E-03
   21114    (21114)               4.17009134E-03
   21115    (21115)               4.16834909E-03
   21116    (21116)               0.0000000     
   21117    (21117)               0.0000000     
   21118    (21118)               0.0000000     
   21119    (21119)               0.0000000     
   21120    (21120)               0.0000000     
   21121    (21121)               0.0000000     
   21122    (21122)               0.0000000     
   21123    (21123)               0.0000000     
 -----------------------------------------------




 HEAD WILL BE SAVED ON UNIT 1018 AT END OF TIME STEP    1, STRESS PERIOD    1


  VOLUME BUDGET FOR ENTIRE MODEL AT END OF TIME STEP    1, STRESS PERIOD   1
  ---------------------------------------------------------------------------------------------------

     CUMULATIVE VOLUME      L**3       RATES FOR THIS TIME STEP      L**3/T          PACKAGE NAME    
     ------------------                 ------------------------                     ----------------

           IN:                                      IN:
           ---                                      ---
                 WEL =           0.0000                   WEL =           0.0000     WELL_CASED_1                     
                 RCH =         504.8836                   RCH =         504.8836     RCH                              
                 EVT =           0.0000                   EVT =           0.0000     EVT                              
                 CHD =           0.0000                   CHD =           0.0000     CHD                              

            TOTAL IN =         504.8836              TOTAL IN =         504.8836

          OUT:                                     OUT:
          ----                                     ----
                 WEL =          69.5678                   WEL =          69.5678     WELL_CASED_1                     
                 RCH =           0.0000                   RCH =           0.0000     RCH                              
                 EVT =           1.8825                   EVT =           1.8825     EVT                              
                 CHD =         433.4364                   CHD =         433.4364     CHD                              

           TOTAL OUT =         504.8867             TOTAL OUT =         504.8867

            IN - OUT =      -3.0775E-03              IN - OUT =      -3.0775E-03

 PERCENT DISCREPANCY =          -0.00     PERCENT DISCREPANCY =          -0.00




         TIME SUMMARY AT END OF TIME STEP    1 IN STRESS PERIOD    1
                    SECONDS     MINUTES      HOURS       DAYS        YEARS
                    -----------------------------------------------------------
   TIME STEP LENGTH  1.0000     1.66667E-02 2.77778E-04 1.15741E-05 3.16881E-08
 STRESS PERIOD TIME  1.0000     1.66667E-02 2.77778E-04 1.15741E-05 3.16881E-08
         TOTAL TIME  1.0000     1.66667E-02 2.77778E-04 1.15741E-05 3.16881E-08


end timestep

