                                   MODFLOW 6
                U.S. GEOLOGICAL SURVEY MODULAR HYDROLOGIC MODEL
                            VERSION 6.6.0 12/20/2024

   MODFLOW 6 compiled Dec 31 2024 17:10:16 with Intel(R) Fortran Intel(R) 64
   Compiler Classic for applications running on Intel(R) 64, Version 2021.7.0
                             Build 20220726_000000

This software has been approved for release by the U.S. Geological 
Survey (USGS). Although the software has been subjected to rigorous 
review, the USGS reserves the right to update the software as needed 
pursuant to further analysis and review. No warranty, expressed or 
implied, is made by the USGS or the U.S. Government as to the 
functionality of the software and related material nor shall the 
fact of release constitute any such warranty. Furthermore, the 
software is released on condition that neither the USGS nor the U.S. 
Government shall be held liable for any damages resulting from its 
authorized or unauthorized use. Also refer to the USGS Water 
Resources Software User Rights Notice for complete use, copyright, 
and distribution information.


As a work of the United States Government, this USGS product is 
in the public domain within the United States. You can copy, 
modify, distribute, and perform the work, even for commercial 
purposes, all without asking permission. Additionally, USGS 
waives copyright and related rights in the work worldwide 
through CC0 1.0 Universal Public Domain Dedication 
(https://creativecommons.org/publicdomain/zero/1.0/).

The following GNU Lesser General Public License (LGPL) libraries
are used in this USGS product:

    SPARSKIT version 2.0
      ilut, luson, and qsplit 
      (https://www-users.cse.umn.edu/~saad/software/SPARSKIT/)

    RCM - Reverse Cuthill McKee Ordering
      (https://people.math.sc.edu/Burkardt/f_src/rcm/rcm.html)

    BLAS - Basic Linear Algebra Subprograms Level 1
      (https://people.math.sc.edu/Burkardt/f_src/blas1_d/blas1_d.html)

    SPARSEKIT - Sparse Matrix Utility Package
      amux, dperm, dvperm, rperm, and cperm
      (https://people.sc.fsu.edu/~jburkardt/f77_src/sparsekit/sparsekit.html)

The following BSD-3 License libraries are used in this USGS product:

    Modern Fortran DAG Library
      Copyright (c) 2018, Jacob Williams
      All rights reserved.
      (https://github.com/jacobwilliams/daglib)

MODFLOW 6 compiler options: /O2 /heap-arrays:0 /fpe:0 /traceback /nologo /fpp
/c /module:win64\mod_mf6\ /object:win64\obj_mf6\

System command used to initiate simulation:
mf6

MODFLOW was compiled using uniform precision.

Real Variables
  KIND: 8
  TINY (smallest non-zero value):    2.225074-308
  HUGE (largest value):    1.797693+308
  PRECISION: 15
  SIZE IN BITS: 64

Integer Variables
  KIND: 4
  HUGE (largest value): 2147483647
  SIZE IN BITS: 32

Long Integer Variables
  KIND: 8
  HUGE (largest value): 9223372036854775807
  SIZE IN BITS: 64

Logical Variables
  KIND: 4
  SIZE IN BITS: 32
 

 OPENED mfsim.nam
 FILE TYPE:NAM6               UNIT 1001   STATUS:OLD                 
 FORMAT:FORMATTED              ACCESS:SEQUENTIAL          
 ACTION:READ                

 # File generated by Flopy version 3.9.1 on 01/31/2026 at 14:59:54.

 OPENED DISU_model.tdis
 FILE TYPE:TDIS6              UNIT 1002   STATUS:OLD                 
 FORMAT:FORMATTED              ACCESS:SEQUENTIAL          
 ACTION:READ                

 # File generated by Flopy version 3.9.1 on 01/31/2026 at 14:59:54.

 OPENED DISU_model.nam
 FILE TYPE:GWF6               UNIT 1003   STATUS:OLD                 
 FORMAT:FORMATTED              ACCESS:SEQUENTIAL          
 ACTION:READ                

 # File generated by Flopy version 3.9.1 on 01/31/2026 at 14:59:54.

 OPENED DISU_model.disu
 FILE TYPE:DISU6              UNIT 1004   STATUS:OLD                 
 FORMAT:FORMATTED              ACCESS:SEQUENTIAL          
 ACTION:READ                

 # File generated by Flopy version 3.9.1 on 01/31/2026 at 14:59:55.

 OPENED DISU_model.npf
 FILE TYPE:NPF6               UNIT 1005   STATUS:OLD                 
 FORMAT:FORMATTED              ACCESS:SEQUENTIAL          
 ACTION:READ                

 # File generated by Flopy version 3.9.1 on 01/31/2026 at 15:00:14.

 OPENED DISU_model.ic
 FILE TYPE:IC6                UNIT 1006   STATUS:OLD                 
 FORMAT:FORMATTED              ACCESS:SEQUENTIAL          
 ACTION:READ                

 # File generated by Flopy version 3.9.1 on 01/31/2026 at 15:00:14.

 OPENED DISU_model.oc
 FILE TYPE:OC6       UNIT 1007   STATUS:OLD                 
 FORMAT:FORMATTED              ACCESS:SEQUENTIAL          
 ACTION:READ                


 OPENED DISU_model.wel
 FILE TYPE:WEL6               UNIT 1008   STATUS:OLD                 
 FORMAT:FORMATTED              ACCESS:SEQUENTIAL          
 ACTION:READ                

 # File generated by Flopy version 3.9.1 on 01/31/2026 at 15:00:15.

 OPENED quadtree_caseD_1.rch
 FILE TYPE:RCH6               UNIT 1010   STATUS:OLD                 
 FORMAT:FORMATTED              ACCESS:SEQUENTIAL          
 ACTION:READ                

 # File generated by Flopy version 3.9.1 on 01/31/2026 at 15:00:15.

 OPENED DISU_model.evt
 FILE TYPE:EVT6               UNIT 1012   STATUS:OLD                 
 FORMAT:FORMATTED              ACCESS:SEQUENTIAL          
 ACTION:READ                

 # File generated by Flopy version 3.9.1 on 01/31/2026 at 15:00:16.

 OPENED DISU_model.chd
 FILE TYPE:CHD6               UNIT 1013   STATUS:OLD                 
 FORMAT:FORMATTED              ACCESS:SEQUENTIAL          
 ACTION:READ                

 # File generated by Flopy version 3.9.1 on 01/31/2026 at 15:00:14.

 READING SIMULATION OPTIONS
    MAXIMUM NUMBER OF ERRORS THAT WILL BE STORED IS 1000
 END OF SIMULATION OPTIONS

 READING SIMULATION TIMING

 TDIS -- TEMPORAL DISCRETIZATION PACKAGE,
 VERSION 1 : 11/13/2014 - INPUT READ FROM MEMPATH: __INPUT__/SIM/TDIS                                
 PROCESSING TDIS OPTIONS
    SIMULATION TIME UNIT IS SECONDS
 END OF TDIS OPTIONS
 PROCESSING TDIS DIMENSIONS
    1 STRESS PERIOD(S) IN SIMULATION
 END OF TDIS DIMENSIONS
 PROCESSING TDIS PERIODDATA


 STRESS PERIOD     LENGTH       TIME STEPS     MULTIPLIER FOR DELT
 ----------------------------------------------------------------------------
        1         1.000000          1                    1.000
 END OF TDIS PERIODDATA
 END OF SIMULATION TIMING

 READING SIMULATION MODELS
    GWF6 model 1 will be created
 END OF SIMULATION MODELS

 READING SIMULATION EXCHANGES
 END OF SIMULATION EXCHANGES

 READING SOLUTIONGROUP

 Creating solution: SLN_1           

 OPENED DISU_model.ims
 FILE TYPE:IMS   UNIT 1015   STATUS:OLD                 
 FORMAT:FORMATTED              ACCESS:SEQUENTIAL          
 ACTION:READ                

 END OF SOLUTIONGROUP

PROCESSING MODEL CONNECTIONS

 IMS -- ITERATIVE MODEL SOLUTION PACKAGE, VERSION 6, 4/28/2017
         INPUT READ FROM UNIT 1015
 # File generated by Flopy version 3.9.1 on 01/31/2026 at 14:59:54.

 PROCESSING IMS OPTIONS
 COMPLEX OPTION:
 DEFAULT SOLVER INPUT VALUES REFLECT STRONGLY NONLINEAR MODEL
 END OF IMS OPTIONS

 PROCESSING IMS NONLINEAR
 END OF IMS NONLINEAR DATA
 **UNDER-RELAXATION WILL BE USED***
 

 PROCESSING LINEAR DATA
 END OF LINEAR DATA
 ***IMS LINEAR SOLVER WILL BE USED***

 IMSLINEAR -- UNSTRUCTURED LINEAR SOLUTION PACKAGE, VERSION 8, 04/28/2017
 An asymmetric matrix will be solved

 OUTER ITERATION CONVERGENCE CRITERION    (DVCLOSE) =    0.100000E-02
 MAXIMUM NUMBER OF OUTER ITERATIONS        (MXITER) = 300
 SOLVER PRINTOUT INDEX                     (IPRIMS) = 1
 NONLINEAR ITERATION METHOD            (NONLINMETH) = 3
 LINEAR SOLUTION METHOD                   (LINMETH) = 1
 UNDER-RELAXATION WEIGHT REDUCTION FACTOR   (THETA) =    0.800000E+00
 UNDER-RELAXATION WEIGHT INCREASE INCREMENT (KAPPA) =    0.100000E-03
 UNDER-RELAXATION PREVIOUS HISTORY FACTOR   (GAMMA) =    0.000000E+00
 UNDER-RELAXATION MOMENTUM TERM         (AMOMENTUM) =    0.000000E+00
 MAXIMUM NUMBER OF BACKTRACKS            (NUMTRACK) = 20
 BACKTRACKING TOLERANCE FACTOR               (BTOL) =    0.105000E+01
 BACKTRACKING REDUCTION FACTOR             (BREDUC) =    0.100000E+00
 BACKTRACKING RESIDUAL LIMIT              (RES_LIM) =    0.200000E-02

       SOLUTION BY THE BICONJUGATE-GRADIENT STABILIZED METHOD
 ------------------------------------------------------------------
 MAXIMUM OF 300 CALLS OF SOLUTION ROUTINE
 MAXIMUM OF 1200 INTERNAL ITERATIONS PER CALL TO SOLUTION ROUTINE
 LINEAR ACCELERATION METHOD            = BCGS      
 MATRIX PRECONDITIONING TYPE           = MOD. INCOMPLETE LUT 
 MATRIX SCALING APPROACH               = NO SCALING          
 MATRIX REORDERING APPROACH            = ORIGINAL ORDERING        
 NUMBER OF ORTHOGONALIZATIONS          = 2
 HEAD CHANGE CRITERION FOR CLOSURE     =    0.10000E-05
 RESIDUAL CHANGE CRITERION FOR CLOSURE =    0.10000E+00
 RESIDUAL CONVERGENCE OPTION           = 0
 RESIDUAL CONVERGENCE NORM             = INFINITY NORM   
 RELAXATION FACTOR                     =    0.92000E+00
 NUMBER OF LEVELS                      =              5
 DROP TOLERANCE                        =    0.10000E-03


 
    Solving:  Stress period:     1    Time step:     1
 
1
 STRESS PERIOD NO. 1, LENGTH =   1.000000    
 ------------------------------------------
 NUMBER OF TIME STEPS = 1
 MULTIPLIER FOR DELT =     1.000
 INITIAL TIME STEP SIZE =   1.000000    

 SLN_1 OUTER ITERATION SUMMARY
 ----------------------------------------------------------------------------------------------------------------------------------------------------------------
                                OUTER      INNER  BACKTRACK  BACKTRACK        INCOMING        OUTGOING                    STEP   MAXIMUM CHANGE MODEL-(CELLID) OR
 OUTER ITERATION STEP       ITERATION  ITERATION       FLAG ITERATIONS        RESIDUAL        RESIDUAL  MAXIMUM CHANGE SUCCESS             MODEL-PACKAGE-(NUMBER)
 ----------------------------------------------------------------------------------------------------------------------------------------------------------------
 Backtracking                       1                     0          0       2978054.4       2978054.4                       *                                   
 Model                              1        167                                                             262.67387                              1_GWF-(69701)
 Backtracking                       2                     0          0       2.7546317       2.7546317                       *                                   
 Model                              2        119                                                           -0.74426197                              1_GWF-(84301)
 Backtracking                       3                     1          2       56.482455       2.7904887                                                           
 Model                              3        114                                                           -0.73848634                              1_GWF-(84301)
 Backtracking                       4                     4          2       55.935710       2.9326679                                                           
 Model                              4        108                                                           -0.73248139                              1_GWF-(84301)
 Backtracking                       5                     4          2       55.402428       3.1611710                                                           
 Model                              5         99                                                           -0.72682390                              1_GWF-(84301)
 Backtracking                       6                     4          2       54.913690       3.4541592                                                           
 Model                              6        120                                                           -0.72016790                              1_GWF-(84301)
 Backtracking                       7                     4          2       54.528439       3.7932024                                                           
 Model                              7        151                                                           -0.71510224                              1_GWF-(84301)
 Backtracking                       8                     4          2       54.168852       4.1638819                                                           
 Model                              8        129                                                           -0.70928502                              1_GWF-(84301)
 Backtracking                       9                     4          2       53.686554       4.5545587                                                           
 Model                              9        119                                                           -0.70364434                              1_GWF-(84301)
 Backtracking                      10                     4          2       53.234967       4.9578124                                                           
 Model                             10        132                                                           -0.69783994                              1_GWF-(84301)
 Backtracking                      11                     4          2       52.762398       5.3680641                                                           
 Model                             11        107                                                           -0.69262577                              1_GWF-(84301)
 Backtracking                      12                     4          2       52.355438       5.7820628                                                           
 Model                             12        108                                                           -0.68697674                              1_GWF-(84301)
 Backtracking                      13                     4          2       51.893548       6.1965782                                                           
 Model                             13        115                                                           -0.68173449                              1_GWF-(84301)
 Backtracking                      14                     4          2       51.456961       6.6098436                                                           
 Model                             14         98                                                           -0.67560108                              1_GWF-(84301)
 Backtracking                      15                     4          2       50.975058       7.0199682                                                           
 Model                             15        119                                                           -0.67026166                              1_GWF-(84301)
 Backtracking                      16                     4          2       50.557411       7.4264678                                                           
 Model                             16         96                                                           -0.66328628                              1_GWF-(84301)
 Backtracking                      17                     4          2       50.008041       7.8272715                                                           
 Model                             17        108                                                           -0.65977156                              1_GWF-(84301)
 Backtracking                      18                     4          2       49.715424       8.2242110                                                           
 Model                             18        110                                                           -0.65443539                              1_GWF-(84301)
 Backtracking                      19                     1          2       49.287516       8.6155237                                                           
 Model                             19        108                                                           -0.64918792                              1_GWF-(84301)
 Backtracking                      20                     1          2       48.868377       9.0009341                                                           
 Model                             20        124                                                           -0.64380181                              1_GWF-(84301)
 Backtracking                      21                     1          2       48.441802       9.3800953                                                           
 Model                             21        108                                                           -0.63871310                              1_GWF-(84301)
 Backtracking                      22                     1          2       48.034234       9.7529822                                                           
 Model                             22        111                                                           -0.63355898                              1_GWF-(84301)
 Backtracking                      23                     1          2       47.622577       10.119396                                                           
 Model                             23        107                                                           -0.62861607                              1_GWF-(84301)
 Backtracking                      24                     1          2       47.223967       10.479345                                                           
 Model                             24        123                                                           -0.62335127                              1_GWF-(84301)
 Backtracking                      25                     1          2       46.808797       10.832579                                                           
 Model                             25        115                                                           -0.61836628                              1_GWF-(84301)
 Backtracking                      26                     1          2       46.410610       11.179204                                                           
 Model                             26        115                                                           -0.61344035                              1_GWF-(84301)
 Backtracking                      27                     1          2       46.017966       11.519231                                                           
 Model                             27         93                                                           -0.60438761                              1_GWF-(84301)
 Backtracking                      28                     1          2       45.536519       11.851666                                                           
 Model                             28        112                                                           -0.60364089                              1_GWF-(84301)
 Backtracking                      29                     1          2       45.236976       12.178484                                                           
 Model                             29        110                                                           -0.59880923                              1_GWF-(84301)
 Backtracking                      30                     1          2       44.853615       12.498757                                                           
 Model                             30        108                                                           -0.59406301                              1_GWF-(84301)
 Backtracking                      31                     1          2       44.473993       12.812528                                                           
 Model                             31        111                                                           -0.58922782                              1_GWF-(84301)
 Backtracking                      32                     1          2       44.092539       13.119793                                                           
 Model                             32        114                                                           -0.58447052                              1_GWF-(84301)
 Backtracking                      33                     1          2       43.712176       13.420585                                                           
 Model                             33         94                                                           -0.57548664                              1_GWF-(84301)
 Backtracking                      34                     1          2       43.200850       13.713587                                                           
 Model                             34        109                                                           -0.57493009                              1_GWF-(84301)
 Backtracking                      35                     1          2       42.972519       14.001736                                                           
 Model                             35        109                                                           -0.57057312                              1_GWF-(84301)
 Backtracking                      36                     1          2       42.608002       14.283656                                                           
 Model                             36        108                                                           -0.56595500                              1_GWF-(84301)
 Backtracking                      37                     1          2       42.240029       14.559350                                                           
 Model                             37         94                                                           -0.55721469                              1_GWF-(84301)
 Backtracking                      38                     1          2       41.723529       14.827350                                                           
 Model                             38        113                                                           -0.55688900                              1_GWF-(84301)
 Backtracking                      39                     1          2       41.518692       15.090868                                                           
 Model                             39        107                                                           -0.55245792                              1_GWF-(84301)
 Backtracking                      40                     1          2       41.167415       15.348447                                                           
 Model                             40        109                                                           -0.54798485                              1_GWF-(84301)
 Backtracking                      41                     1          2       40.813210       15.600101                                                           
 Model                             41        111                                                           -0.54358111                              1_GWF-(84301)
 Backtracking                      42                     1          2       40.467350       15.845955                                                           
 Model                             42        112                                                           -0.53918303                              1_GWF-(84301)
 Backtracking                      43                     1          2       40.118325       16.086024                                                           
 Model                             43        111                                                           -0.53483210                              1_GWF-(84301)
 Backtracking                      44                     1          2       39.773671       16.320397                                                           
 Model                             44        107                                                           -0.53056958                              1_GWF-(84301)
 Backtracking                      45                     1          2       39.436382       16.549191                                                           
 Model                             45         91                                                           -0.52222501                              1_GWF-(84301)
 Backtracking                      46                     1          2       38.930487       16.770754                                                           
 Model                             46        119                                                           -0.52204338                              1_GWF-(84301)
 Backtracking                      47                     1          2       38.762782       16.988558                                                           
 Model                             47        115                                                           -0.51784524                              1_GWF-(84301)
 Backtracking                      48                     1          2       38.431373       17.200981                                                           
 Model                             48        123                                                           -0.51366704                              1_GWF-(84301)
 Backtracking                      49                     1          2       38.104574       17.408116                                                           
 Model                             49        105                                                           -0.50820716                              1_GWF-(84301)
 Backtracking                      50                     1          2       37.686830       17.609104                                                           
 Model                             50        115                                                           -0.50544707                              1_GWF-(84301)
 Backtracking                      51                     1          2       37.453337       17.805832                                                           
 Model                             51        114                                                           -0.50138891                              1_GWF-(84301)
 Backtracking                      52                     1          2       37.130402       17.997448                                                           
 Model                             52        120                                                           -0.49733239                              1_GWF-(84301)
 Backtracking                      53                     1          2       36.814266       18.184066                                                           
 Model                             53         85                                                           -0.48936883                              1_GWF-(84301)
 Backtracking                      54                     1          2       36.334750       18.364083                                                           
 Model                             54        115                                                           -0.48938097                              1_GWF-(84301)
 Backtracking                      55                     1          2       36.187877       18.540914                                                           
 Model                             55        108                                                           -0.48550213                              1_GWF-(84301)
 Backtracking                      56                     1          2       35.881679       18.712979                                                           
 Model                             56        112                                                           -0.48154198                              1_GWF-(84301)
 Backtracking                      57                     1          2       35.574197       18.880311                                                           
 Model                             57        108                                                           -0.47766524                              1_GWF-(84301)
 Backtracking                      58                     1          2       35.269587       19.042981                                                           
 Model                             58         89                                                           -0.46984289                              1_GWF-(84301)
 Backtracking                      59                     1          2       34.793165       19.199307                                                           
 Model                             59        111                                                           -0.46988125                              1_GWF-(84301)
 Backtracking                      60                     1          2       34.670736       19.352905                                                           
 Model                             60        101                                                           -0.46490408                              1_GWF-(84301)
 Backtracking                      61                     1          2       34.310681       19.501417                                                           
 Model                             61        114                                                           -0.46250453                              1_GWF-(84301)
 Backtracking                      62                     1          2       34.077568       19.646155                                                           
 Model                             62        118                                                           -0.45874659                              1_GWF-(84301)
 Backtracking                      63                     1          2       33.777832       19.786492                                                           
 Model                             63        113                                                           -0.45503404                              1_GWF-(84301)
 Backtracking                      64                     1          2       33.492434       19.922613                                                           
 Model                             64         88                                                           -0.44700839                              1_GWF-(84301)
 Backtracking                      65                     1          2       33.135794       20.053765                                                           
 Model                             65        113                                                           -0.44777068                              1_GWF-(84301)
 Backtracking                      66                     1          2       32.923395       20.181598                                                           
 Model                             66        112                                                           -0.44414588                              1_GWF-(84301)
 Backtracking                      67                     1          2       32.636840       20.305322                                                           
 Model                             67         93                                                           -0.43704948                              1_GWF-(84301)
 Backtracking                      68                     1          2       32.157627       20.423054                                                           
 Model                             68         94                                                           -0.43340557                              1_GWF-(84301)
 Backtracking                      69                     1          2       31.884813       20.536912                                                           
 Model                             69         88                                                           -0.43059860                              1_GWF-(84301)
 Backtracking                      70                     1          2       31.556471       20.646377                                                           
 Model                             70        120                                                           -0.43004824                              1_GWF-(84301)
 Backtracking                      71                     1          2       31.535049       20.754557                                                           
 Model                             71        115                                                           -0.42658575                              1_GWF-(84301)
 Backtracking                      72                     1          2       31.263121       20.858963                                                           
 Model                             72        112                                                           -0.42314230                              1_GWF-(84301)
 Backtracking                      73                     1          1       30.997921       21.867160                                                           
 Model                             73        112                                                           -0.38896176                              1_GWF-(84301)
 Backtracking                      74                     1          1       28.476893       22.524210                                                           
 Model                             74        113                                                           -0.35753624                              1_GWF-(84301)
 Backtracking                      75                     1          1       26.158720       22.884868                                                           
 Model                             75         92                                                           -0.32529924                              1_GWF-(84301)
 Backtracking                      76                     0          0       23.960882       23.960882                       *                                   
 Model                             76         90                                                       -6.48783086E-02                              1_GWF-(84301)
 Backtracking                      77                     0          0       4.8006991       4.8006991                       *                                   
 Model                             77         85                                                       -1.30641321E-02                              1_GWF-(84301)
 Backtracking                      78                     0          0      0.96657923      0.96657923                       *                                   
 Model                             78         45                                                       -4.16818039E-03                              1_GWF-(84301)
 Backtracking                      79                     0          0      0.33406611      0.33406611                       *                                   
 Model                             79          4                                                        1.81908275E-04       *                      1_GWF-(12892)
 ----------------------------------------------------------------------------------------------------------------------------------------------------------------


 79 CALLS TO NUMERICAL SOLUTION IN TIME STEP 1 STRESS PERIOD 1
 8514 TOTAL ITERATIONS

 MEMORY MANAGER TOTAL STORAGE BY DATA TYPE, IN MEGABYTES
 -------------------------------
                    ALLOCATED   
 DATA TYPE           MEMORY     
 -------------------------------
 Character        1.04880000E-02
 Logical          4.80000000E-05
 Integer          40.411108     
 Real             97.611024     
 -------------------------------
 Total            138.03267     
 Virtual          0.0000000     
 -------------------------------


 
 Run end date and time (yyyy/mm/dd hh:mm:ss): 2026/01/31 15:01:04
 Elapsed run time: 47.085 Seconds
 Normal termination of simulation.
