                                   MODFLOW 6
                U.S. GEOLOGICAL SURVEY MODULAR HYDROLOGIC MODEL
                            VERSION 6.6.0 12/20/2024

   MODFLOW 6 compiled Dec 31 2024 17:10:16 with Intel(R) Fortran Intel(R) 64
   Compiler Classic for applications running on Intel(R) 64, Version 2021.7.0
                             Build 20220726_000000

This software has been approved for release by the U.S. Geological 
Survey (USGS). Although the software has been subjected to rigorous 
review, the USGS reserves the right to update the software as needed 
pursuant to further analysis and review. No warranty, expressed or 
implied, is made by the USGS or the U.S. Government as to the 
functionality of the software and related material nor shall the 
fact of release constitute any such warranty. Furthermore, the 
software is released on condition that neither the USGS nor the U.S. 
Government shall be held liable for any damages resulting from its 
authorized or unauthorized use. Also refer to the USGS Water 
Resources Software User Rights Notice for complete use, copyright, 
and distribution information.


As a work of the United States Government, this USGS product is 
in the public domain within the United States. You can copy, 
modify, distribute, and perform the work, even for commercial 
purposes, all without asking permission. Additionally, USGS 
waives copyright and related rights in the work worldwide 
through CC0 1.0 Universal Public Domain Dedication 
(https://creativecommons.org/publicdomain/zero/1.0/).

The following GNU Lesser General Public License (LGPL) libraries
are used in this USGS product:

    SPARSKIT version 2.0
      ilut, luson, and qsplit 
      (https://www-users.cse.umn.edu/~saad/software/SPARSKIT/)

    RCM - Reverse Cuthill McKee Ordering
      (https://people.math.sc.edu/Burkardt/f_src/rcm/rcm.html)

    BLAS - Basic Linear Algebra Subprograms Level 1
      (https://people.math.sc.edu/Burkardt/f_src/blas1_d/blas1_d.html)

    SPARSEKIT - Sparse Matrix Utility Package
      amux, dperm, dvperm, rperm, and cperm
      (https://people.sc.fsu.edu/~jburkardt/f77_src/sparsekit/sparsekit.html)

The following BSD-3 License libraries are used in this USGS product:

    Modern Fortran DAG Library
      Copyright (c) 2018, Jacob Williams
      All rights reserved.
      (https://github.com/jacobwilliams/daglib)

MODFLOW 6 compiler options: /O2 /heap-arrays:0 /fpe:0 /traceback /nologo /fpp
/c /module:win64\mod_mf6\ /object:win64\obj_mf6\

System command used to initiate simulation:
C:\Users\sebas\anaconda3\Scripts\mf6.exe

MODFLOW was compiled using uniform precision.

Real Variables
  KIND: 8
  TINY (smallest non-zero value):    2.225074-308
  HUGE (largest value):    1.797693+308
  PRECISION: 15
  SIZE IN BITS: 64

Integer Variables
  KIND: 4
  HUGE (largest value): 2147483647
  SIZE IN BITS: 32

Long Integer Variables
  KIND: 8
  HUGE (largest value): 9223372036854775807
  SIZE IN BITS: 64

Logical Variables
  KIND: 4
  SIZE IN BITS: 32
 

 OPENED mfsim.nam
 FILE TYPE:NAM6               UNIT 1001   STATUS:OLD                 
 FORMAT:FORMATTED              ACCESS:SEQUENTIAL          
 ACTION:READ                

 # File generated by Flopy version 3.9.1 on 04/10/2026 at 20:24:46.

 OPENED DISU_model.tdis
 FILE TYPE:TDIS6              UNIT 1002   STATUS:OLD                 
 FORMAT:FORMATTED              ACCESS:SEQUENTIAL          
 ACTION:READ                

 # File generated by Flopy version 3.9.1 on 04/10/2026 at 20:24:46.

 OPENED DISU_model.nam
 FILE TYPE:GWF6               UNIT 1003   STATUS:OLD                 
 FORMAT:FORMATTED              ACCESS:SEQUENTIAL          
 ACTION:READ                

 # File generated by Flopy version 3.9.1 on 04/10/2026 at 20:24:46.

 OPENED DISU_model.disu
 FILE TYPE:DISU6              UNIT 1004   STATUS:OLD                 
 FORMAT:FORMATTED              ACCESS:SEQUENTIAL          
 ACTION:READ                

 # File generated by Flopy version 3.9.1 on 04/10/2026 at 20:24:46.

 OPENED DISU_model.npf
 FILE TYPE:NPF6               UNIT 1005   STATUS:OLD                 
 FORMAT:FORMATTED              ACCESS:SEQUENTIAL          
 ACTION:READ                

 # File generated by Flopy version 3.9.1 on 04/10/2026 at 20:25:49.

 OPENED DISU_model.ic
 FILE TYPE:IC6                UNIT 1006   STATUS:OLD                 
 FORMAT:FORMATTED              ACCESS:SEQUENTIAL          
 ACTION:READ                

 # File generated by Flopy version 3.9.1 on 04/10/2026 at 20:25:46.

 OPENED DISU_model.oc
 FILE TYPE:OC6       UNIT 1007   STATUS:OLD                 
 FORMAT:FORMATTED              ACCESS:SEQUENTIAL          
 ACTION:READ                


 OPENED DISU_model.wel
 FILE TYPE:WEL6               UNIT 1008   STATUS:OLD                 
 FORMAT:FORMATTED              ACCESS:SEQUENTIAL          
 ACTION:READ                

 # File generated by Flopy version 3.9.1 on 04/10/2026 at 20:25:52.

 OPENED quadtree_caseD.rch
 FILE TYPE:RCH6               UNIT 1010   STATUS:OLD                 
 FORMAT:FORMATTED              ACCESS:SEQUENTIAL          
 ACTION:READ                

 # File generated by Flopy version 3.9.1 on 04/10/2026 at 20:25:53.

 OPENED DISU_model.evt
 FILE TYPE:EVT6               UNIT 1012   STATUS:OLD                 
 FORMAT:FORMATTED              ACCESS:SEQUENTIAL          
 ACTION:READ                

 # File generated by Flopy version 3.9.1 on 04/10/2026 at 20:25:54.

 OPENED DISU_model.chd
 FILE TYPE:CHD6               UNIT 1013   STATUS:OLD                 
 FORMAT:FORMATTED              ACCESS:SEQUENTIAL          
 ACTION:READ                

 # File generated by Flopy version 3.9.1 on 04/10/2026 at 20:25:49.

 READING SIMULATION OPTIONS
    MAXIMUM NUMBER OF ERRORS THAT WILL BE STORED IS 1000
 END OF SIMULATION OPTIONS

 READING SIMULATION TIMING

 TDIS -- TEMPORAL DISCRETIZATION PACKAGE,
 VERSION 1 : 11/13/2014 - INPUT READ FROM MEMPATH: __INPUT__/SIM/TDIS                                
 PROCESSING TDIS OPTIONS
    SIMULATION TIME UNIT IS SECONDS
 END OF TDIS OPTIONS
 PROCESSING TDIS DIMENSIONS
    1 STRESS PERIOD(S) IN SIMULATION
 END OF TDIS DIMENSIONS
 PROCESSING TDIS PERIODDATA


 STRESS PERIOD     LENGTH       TIME STEPS     MULTIPLIER FOR DELT
 ----------------------------------------------------------------------------
        1         1.000000          1                    1.000
 END OF TDIS PERIODDATA
 END OF SIMULATION TIMING

 READING SIMULATION MODELS
    GWF6 model 1 will be created
 END OF SIMULATION MODELS

 READING SIMULATION EXCHANGES
 END OF SIMULATION EXCHANGES

 READING SOLUTIONGROUP

 Creating solution: SLN_1           

 OPENED DISU_model.ims
 FILE TYPE:IMS   UNIT 1015   STATUS:OLD                 
 FORMAT:FORMATTED              ACCESS:SEQUENTIAL          
 ACTION:READ                

 END OF SOLUTIONGROUP

PROCESSING MODEL CONNECTIONS

 IMS -- ITERATIVE MODEL SOLUTION PACKAGE, VERSION 6, 4/28/2017
         INPUT READ FROM UNIT 1015
 # File generated by Flopy version 3.9.1 on 04/10/2026 at 20:24:46.

 PROCESSING IMS OPTIONS
 COMPLEX OPTION:
 DEFAULT SOLVER INPUT VALUES REFLECT STRONGLY NONLINEAR MODEL
 END OF IMS OPTIONS

 PROCESSING IMS NONLINEAR
 END OF IMS NONLINEAR DATA
 **UNDER-RELAXATION WILL BE USED***
 

 PROCESSING LINEAR DATA
 END OF LINEAR DATA
 ***IMS LINEAR SOLVER WILL BE USED***

 IMSLINEAR -- UNSTRUCTURED LINEAR SOLUTION PACKAGE, VERSION 8, 04/28/2017
 An asymmetric matrix will be solved

 OUTER ITERATION CONVERGENCE CRITERION    (DVCLOSE) =    0.100000E-02
 MAXIMUM NUMBER OF OUTER ITERATIONS        (MXITER) = 300
 SOLVER PRINTOUT INDEX                     (IPRIMS) = 1
 NONLINEAR ITERATION METHOD            (NONLINMETH) = 3
 LINEAR SOLUTION METHOD                   (LINMETH) = 1
 UNDER-RELAXATION WEIGHT REDUCTION FACTOR   (THETA) =    0.800000E+00
 UNDER-RELAXATION WEIGHT INCREASE INCREMENT (KAPPA) =    0.100000E-03
 UNDER-RELAXATION PREVIOUS HISTORY FACTOR   (GAMMA) =    0.000000E+00
 UNDER-RELAXATION MOMENTUM TERM         (AMOMENTUM) =    0.000000E+00
 MAXIMUM NUMBER OF BACKTRACKS            (NUMTRACK) = 20
 BACKTRACKING TOLERANCE FACTOR               (BTOL) =    0.105000E+01
 BACKTRACKING REDUCTION FACTOR             (BREDUC) =    0.100000E+00
 BACKTRACKING RESIDUAL LIMIT              (RES_LIM) =    0.200000E-02

       SOLUTION BY THE BICONJUGATE-GRADIENT STABILIZED METHOD
 ------------------------------------------------------------------
 MAXIMUM OF 300 CALLS OF SOLUTION ROUTINE
 MAXIMUM OF 1200 INTERNAL ITERATIONS PER CALL TO SOLUTION ROUTINE
 LINEAR ACCELERATION METHOD            = BCGS      
 MATRIX PRECONDITIONING TYPE           = MOD. INCOMPLETE LUT 
 MATRIX SCALING APPROACH               = NO SCALING          
 MATRIX REORDERING APPROACH            = ORIGINAL ORDERING        
 NUMBER OF ORTHOGONALIZATIONS          = 2
 HEAD CHANGE CRITERION FOR CLOSURE     =    0.10000E-05
 RESIDUAL CHANGE CRITERION FOR CLOSURE =    0.10000E+00
 RESIDUAL CONVERGENCE OPTION           = 0
 RESIDUAL CONVERGENCE NORM             = INFINITY NORM   
 RELAXATION FACTOR                     =    0.92000E+00
 NUMBER OF LEVELS                      =              5
 DROP TOLERANCE                        =    0.10000E-03


 
    Solving:  Stress period:     1    Time step:     1
 
1
 STRESS PERIOD NO. 1, LENGTH =   1.000000    
 ------------------------------------------
 NUMBER OF TIME STEPS = 1
 MULTIPLIER FOR DELT =     1.000
 INITIAL TIME STEP SIZE =   1.000000    

 SLN_1 OUTER ITERATION SUMMARY
 ----------------------------------------------------------------------------------------------------------------------------------------------------------------
                                OUTER      INNER  BACKTRACK  BACKTRACK        INCOMING        OUTGOING                    STEP   MAXIMUM CHANGE MODEL-(CELLID) OR
 OUTER ITERATION STEP       ITERATION  ITERATION       FLAG ITERATIONS        RESIDUAL        RESIDUAL  MAXIMUM CHANGE SUCCESS             MODEL-PACKAGE-(NUMBER)
 ----------------------------------------------------------------------------------------------------------------------------------------------------------------
 Backtracking                       1                     0          0       1928884.5       1928884.5                       *                                   
 Model                              1        230                                                             255.17726                             1_GWF-(297084)
 Backtracking                       2                     0          0  9.41203234E-02  9.41203234E-02                       *                                   
 Model                              2        106                                                           -0.19082452                             1_GWF-(305513)
 Backtracking                       3                     4          2       10.485432      0.13895768                                                           
 Model                              3        134                                                           -0.19107732                             1_GWF-(305513)
 Backtracking                       4                     4          2       13.302909      0.25156540                                                           
 Model                              4        130                                                           -0.18898670                             1_GWF-(305513)
 Backtracking                       5                     4          2       13.112388      0.37388742                                                           
 Model                              5        127                                                           -0.18761734                             1_GWF-(305513)
 Backtracking                       6                     4          2       13.015575      0.49725444                                                           
 Model                              6        129                                                           -0.18600768                             1_GWF-(305513)
 Backtracking                       7                     4          2       12.894920      0.61945578                                                           
 Model                              7        135                                                           -0.18440371                             1_GWF-(305513)
 Backtracking                       8                     4          2       12.775379      0.73986023                                                           
 Model                              8        127                                                           -0.18288272                             1_GWF-(305513)
 Backtracking                       9                     4          2       12.663535      0.85828799                                                           
 Model                              9        124                                                           -0.18143012                             1_GWF-(305513)
 Backtracking                      10                     4          2       12.556264      0.97467187                                                           
 Model                             10        142                                                           -0.18054792                             1_GWF-(305513)
 Backtracking                      11                     4          2       12.523676       1.0896959                                                           
 Model                             11        147                                                           -0.17911662                             1_GWF-(305513)
 Backtracking                      12                     4          2       12.418903       1.2026205                                                           
 Model                             12        143                                                           -0.17793208                             1_GWF-(305513)
 Backtracking                      13                     4          2       12.345071       1.3137447                                                           
 Model                             13        158                                                           -0.17621593                             1_GWF-(305513)
 Backtracking                      14                     4          2       12.203970       1.4224047                                                           
 Model                             14        141                                                           -0.17489230                             1_GWF-(305513)
 Backtracking                      15                     4          2       12.111741       1.5290944                                                           
 Model                             15        125                                                           -0.17206624                             1_GWF-(305513)
 Backtracking                      16                     4          2       11.839378       1.6320101                                                           
 Model                             16        132                                                           -0.17143078                             1_GWF-(305513)
 Backtracking                      17                     4          2       11.824410       1.7337896                                                           
 Model                             17        147                                                           -0.17068384                             1_GWF-(305513)
 Backtracking                      18                     4          2       11.799408       1.8343163                                                           
 Model                             18        133                                                           -0.16872916                             1_GWF-(305513)
 Backtracking                      19                     4          2       11.627033       1.9321347                                                           
 Model                             19        107                                                           -0.16538003                             1_GWF-(305513)
 Backtracking                      20                     1          2       11.257574       2.0252884                                                           
 Model                             20        116                                                           -0.16562964                             1_GWF-(305513)
 Backtracking                      21                     1          2       11.373940       2.1186913                                                           
 Model                             21        111                                                           -0.16275340                             1_GWF-(305513)
 Backtracking                      22                     1          2       11.012993       2.2075577                                                           
 Model                             22        142                                                           -0.16406128                             1_GWF-(305513)
 Backtracking                      23                     1          2       11.321857       2.2986256                                                           
 Model                             23        130                                                           -0.16222600                             1_GWF-(305513)
 Backtracking                      24                     1          2       11.155725       2.3871344                                                           
 Model                             24        146                                                           -0.16136522                             1_GWF-(305513)
 Backtracking                      25                     1          2       11.119765       2.4744010                                                           
 Model                             25        145                                                           -0.16008928                             1_GWF-(305513)
 Backtracking                      26                     1          2       11.027051       2.5598729                                                           
 Model                             26        134                                                           -0.15823400                             1_GWF-(305513)
 Backtracking                      27                     1          2       10.866202       2.6428867                                                           
 Model                             27        143                                                           -0.15751848                             1_GWF-(305513)
 Backtracking                      28                     1          2       10.838653       2.7247988                                                           
 Model                             28        143                                                           -0.15629302                             1_GWF-(305513)
 Backtracking                      29                     1          2       10.751116       2.8050197                                                           
 Model                             29        128                                                           -0.15449064                             1_GWF-(305513)
 Backtracking                      30                     1          2       10.592013       2.8828539                                                           
 Model                             30        128                                                           -0.15329797                             1_GWF-(305513)
 Backtracking                      31                     1          2       10.507939       2.9590708                                                           
 Model                             31        144                                                           -0.15254627                             1_GWF-(305513)
 Backtracking                      32                     1          2       10.476525       3.0342119                                                           
 Model                             32        120                                                           -0.15074866                             1_GWF-(305513)
 Backtracking                      33                     1          2       10.316015       3.1070023                                                           
 Model                             33        123                                                           -0.14953587                             1_GWF-(305513)
 Backtracking                      34                     1          2       10.230692       3.1782121                                                           
 Model                             34        141                                                           -0.14897356                             1_GWF-(305513)
 Backtracking                      35                     1          2       10.220936       3.2486113                                                           
 Model                             35        117                                                           -0.14697173                             1_GWF-(305513)
 Backtracking                      36                     1          2       10.028029       3.3163837                                                           
 Model                             36        142                                                           -0.14653536                             1_GWF-(305513)
 Backtracking                      37                     1          2       10.039621       3.3835918                                                           
 Model                             37        125                                                           -0.14484691                             1_GWF-(305513)
 Backtracking                      38                     1          2       9.8900684       3.4486371                                                           
 Model                             38        122                                                           -0.14365828                             1_GWF-(305513)
 Backtracking                      39                     1          2       9.8032830       3.5121651                                                           
 Model                             39        121                                                           -0.14279086                             1_GWF-(305513)
 Backtracking                      40                     1          2       9.7519395       3.5745439                                                           
 Model                             40        147                                                           -0.14187702                             1_GWF-(305513)
 Backtracking                      41                     1          2       9.7006140       3.6357858                                                           
 Model                             41        129                                                           -0.14028083                             1_GWF-(305513)
 Backtracking                      42                     1          2       9.5617286       3.6950301                                                           
 Model                             42        115                                                           -0.13884299                             1_GWF-(305513)
 Backtracking                      43                     1          2       9.4242834       3.7523087                                                           
 Model                             43        148                                                           -0.13848106                             1_GWF-(305513)
 Backtracking                      44                     1          2       9.4543642       3.8093136                                                           
 Model                             44        145                                                           -0.13735516                             1_GWF-(305513)
 Backtracking                      45                     1          2       9.3721883       3.8649277                                                           
 Model                             45        141                                                           -0.13659328                             1_GWF-(305513)
 Backtracking                      46                     1          2       9.3362483       3.9196240                                                           
 Model                             46        123                                                           -0.13482198                             1_GWF-(305513)
 Backtracking                      47                     1          2       9.1674046       3.9720902                                                           
 Model                             47        132                                                           -0.13378057                             1_GWF-(305513)
 Backtracking                      48                     1          2       9.0984110       4.0233425                                                           
 Model                             48        123                                                           -0.13259505                             1_GWF-(305513)
 Backtracking                      49                     1          2       9.0056302       4.0731552                                                           
 Model                             49        127                                                           -0.13133221                             1_GWF-(305513)
 Backtracking                      50                     1          2       8.9106597       4.1215151                                                           
 Model                             50        119                                                           -0.13023856                             1_GWF-(305513)
 Backtracking                      51                     1          2       8.8299576       4.1685853                                                           
 Model                             51        125                                                           -0.12939657                             1_GWF-(305513)
 Backtracking                      52                     1          2       8.7712494       4.2146033                                                           
 Model                             52        124                                                           -0.12826136                             1_GWF-(305513)
 Backtracking                      53                     1          2       8.6918466       4.2593653                                                           
 Model                             53        121                                                           -0.12722837                             1_GWF-(305513)
 Backtracking                      54                     1          2       8.6175647       4.3029374                                                           
 Model                             54        126                                                           -0.12638281                             1_GWF-(305513)
 Backtracking                      55                     1          2       8.5598491       4.3454977                                                           
 Model                             55        123                                                           -0.12568365                             1_GWF-(305513)
 Backtracking                      56                     1          2       8.5361429       4.3873954                                                           
 Model                             56        123                                                           -0.12439330                             1_GWF-(305513)
 Backtracking                      57                     1          2       8.4149383       4.4276633                                                           
 Model                             57        130                                                           -0.12325146                             1_GWF-(305513)
 Backtracking                      58                     4          1       8.3346845       4.8183038                                                           
 Model                             58        124                                                           -0.11338786                             1_GWF-(305513)
 Backtracking                      59                     4          1       7.6660545       5.1030417                                                           
 Model                             59        109                                                           -0.10341210                             1_GWF-(305513)
 Backtracking                      60                     1          1       6.9329604       5.2859886                                                           
 Model                             60        123                                                       -9.59246505E-02                             1_GWF-(305513)
 Backtracking                      61                     1          1       6.4842392       5.4057913                                                           
 Model                             61        124                                                       -8.83063866E-02                             1_GWF-(305513)
 Backtracking                      62                     1          1       5.9709933       5.4622765                                                           
 Model                             62        114                                                       -8.07186683E-02                             1_GWF-(305513)
 Backtracking                      63                     0          0       5.4236949       5.4236949                       *                                   
 Model                             63        103                                                       -1.60900658E-02                             1_GWF-(305513)
 Backtracking                      64                     0          0       1.1167845       1.1167845                       *                                   
 Model                             64         36                                                       -2.01074355E-03                             1_GWF-(305513)
 Backtracking                      65                     0          0      0.24034770      0.24034770                       *                                   
 Model                             65         31                                                       -4.37495409E-04       *                     1_GWF-(305513)
 ----------------------------------------------------------------------------------------------------------------------------------------------------------------


 65 CALLS TO NUMERICAL SOLUTION IN TIME STEP 1 STRESS PERIOD 1
 8323 TOTAL ITERATIONS

 MEMORY MANAGER TOTAL STORAGE BY DATA TYPE, IN MEGABYTES
 -------------------------------
                    ALLOCATED   
 DATA TYPE           MEMORY     
 -------------------------------
 Character        1.04880000E-02
 Logical          4.80000000E-05
 Integer          140.39122     
 Real             342.66209     
 -------------------------------
 Total            483.06385     
 Virtual          0.0000000     
 -------------------------------


 
 Run end date and time (yyyy/mm/dd hh:mm:ss): 2026/04/10 20:28:20
 Elapsed run time:  2 Minutes, 19.546 Seconds
 Normal termination of simulation.
