                                   MODFLOW 6
                U.S. GEOLOGICAL SURVEY MODULAR HYDROLOGIC MODEL
                          GROUNDWATER FLOW MODEL (GWF)
                            VERSION 6.6.0 12/20/2024

   MODFLOW 6 compiled Dec 31 2024 17:10:16 with Intel(R) Fortran Intel(R) 64
   Compiler Classic for applications running on Intel(R) 64, Version 2021.7.0
                             Build 20220726_000000

This software has been approved for release by the U.S. Geological 
Survey (USGS). Although the software has been subjected to rigorous 
review, the USGS reserves the right to update the software as needed 
pursuant to further analysis and review. No warranty, expressed or 
implied, is made by the USGS or the U.S. Government as to the 
functionality of the software and related material nor shall the 
fact of release constitute any such warranty. Furthermore, the 
software is released on condition that neither the USGS nor the U.S. 
Government shall be held liable for any damages resulting from its 
authorized or unauthorized use. Also refer to the USGS Water 
Resources Software User Rights Notice for complete use, copyright, 
and distribution information.


As a work of the United States Government, this USGS product is 
in the public domain within the United States. You can copy, 
modify, distribute, and perform the work, even for commercial 
purposes, all without asking permission. Additionally, USGS 
waives copyright and related rights in the work worldwide 
through CC0 1.0 Universal Public Domain Dedication 
(https://creativecommons.org/publicdomain/zero/1.0/).

The following GNU Lesser General Public License (LGPL) libraries
are used in this USGS product:

    SPARSKIT version 2.0
      ilut, luson, and qsplit 
      (https://www-users.cse.umn.edu/~saad/software/SPARSKIT/)

    RCM - Reverse Cuthill McKee Ordering
      (https://people.math.sc.edu/Burkardt/f_src/rcm/rcm.html)

    BLAS - Basic Linear Algebra Subprograms Level 1
      (https://people.math.sc.edu/Burkardt/f_src/blas1_d/blas1_d.html)

    SPARSEKIT - Sparse Matrix Utility Package
      amux, dperm, dvperm, rperm, and cperm
      (https://people.sc.fsu.edu/~jburkardt/f77_src/sparsekit/sparsekit.html)

The following BSD-3 License libraries are used in this USGS product:

    Modern Fortran DAG Library
      Copyright (c) 2018, Jacob Williams
      All rights reserved.
      (https://github.com/jacobwilliams/daglib)

MODFLOW 6 compiler options: /O2 /heap-arrays:0 /fpe:0 /traceback /nologo /fpp
/c /module:win64\mod_mf6\ /object:win64\obj_mf6\

System command used to initiate simulation:
C:\Users\sebas\AppData\Local\flopy\bin\mf6.exe

MODFLOW was compiled using uniform precision.

Real Variables
  KIND: 8
  TINY (smallest non-zero value):    2.225074-308
  HUGE (largest value):    1.797693+308
  PRECISION: 15
  SIZE IN BITS: 64

Integer Variables
  KIND: 4
  HUGE (largest value): 2147483647
  SIZE IN BITS: 32

Long Integer Variables
  KIND: 8
  HUGE (largest value): 9223372036854775807
  SIZE IN BITS: 64

Logical Variables
  KIND: 4
  SIZE IN BITS: 32
 
 NAMEFILE OPTIONS:
    FLOWS WILL BE SAVED TO BUDGET FILE SPECIFIED IN OUTPUT CONTROL
 END NAMEFILE OPTIONS:

 DISV -- VERTEX GRID DISCRETIZATION PACKAGE, VERSION 1 : 12/23/2015 - INPUT READ FROM MEMPATH: __INPUT__/TRIANGLE_CASED/DISV                     


 Setting Discretization Options
 End Setting Discretization Options

 Setting Discretization Dimensions
    NLAY = 2
    NCPL = 32515
    NVERT = 17759
 End Setting Discretization Dimensions

 Setting Discretization Griddata
    TOP set from input file
    BOTM set from input file
 End Setting Discretization Griddata

 Discretization Vertex data loaded
 Discretization Cell2d data loaded

 NPF -- NODE PROPERTY FLOW PACKAGE, VERSION 1, 3/30/2015 INPUT READ FROM MEMPATH: __INPUT__/TRIANGLE_CASED/NPF                      


 IC -- Initial Conditions Package, Version 8, 3/28/2015 input read from mempath: __INPUT__/TRIANGLE_CASED/IC                       


 Setting NPF Options
    Cell-by-cell flow information will be saved to binary file whenever ICBCFL is not zero.
    Specific discharge will be calculated at cell centers and written to DATA-SPDIS in budget file when requested.
 End Setting NPF Options

 Setting NPF Griddata
    ICELLTYPE set from input file
    K set from input file
    K33 not provided.  Setting K33 = K.
    K22 not provided.  Setting K22 = K.
 End Setting NPF Griddata


 WEL   -- WEL PACKAGE, VERSION 8, 2/22/2014 INPUT READ FROM MEMPATH: __INPUT__/TRIANGLE_CASED/WELL_PACKAGE             

 PROCESSING WEL BASE OPTIONS
    FLOWS WILL BE SAVED TO BUDGET FILE SPECIFIED IN OUTPUT CONTROL
 END OF WEL BASE OPTIONS

 PROCESSING WEL OPTIONS
 END OF WEL OPTIONS

 PROCESSING WEL BASE DIMENSIONS
    MAXBOUND =   36579
 END OF WEL BASE DIMENSIONS

 RCH   -- RCH PACKAGE, VERSION 8, 2/22/2014 INPUT READ FROM MEMPATH: __INPUT__/TRIANGLE_CASED/RCH                      

 PROCESSING RCH BASE OPTIONS
    FLOWS WILL BE SAVED TO BUDGET FILE SPECIFIED IN OUTPUT CONTROL
    RCH FLOWS WILL BE PRINTED TO LISTING FILE.
 END OF RCH BASE OPTIONS

 PROCESSING RCH OPTIONS
    RECHARGE WILL BE APPLIED TO SPECIFIED CELL.
 END OF RCH OPTIONS

 PROCESSING RCH BASE DIMENSIONS
    MAXBOUND =   32515
 END OF RCH BASE DIMENSIONS

 EVT   -- EVT PACKAGE, VERSION 8, 2/22/2014 INPUT READ FROM MEMPATH: __INPUT__/TRIANGLE_CASED/EVT                      

 PROCESSING EVT BASE OPTIONS
    FLOWS WILL BE SAVED TO BUDGET FILE SPECIFIED IN OUTPUT CONTROL
 END OF EVT BASE OPTIONS

 PROCESSING EVT OPTIONS
 END OF EVT OPTIONS

 PROCESSING EVT BASE DIMENSIONS
    MAXBOUND =   28967
 END OF EVT BASE DIMENSIONS

 PROCESSING EVT DIMENSIONS
    NSEG = 1
 END OF EVT DIMENSIONS

 CHD   -- CHD PACKAGE, VERSION 8, 2/22/2014 INPUT READ FROM MEMPATH: __INPUT__/TRIANGLE_CASED/CHD                      

 PROCESSING CHD BASE OPTIONS
    FLOWS WILL BE SAVED TO BUDGET FILE SPECIFIED IN OUTPUT CONTROL
 END OF CHD BASE OPTIONS

 PROCESSING CHD BASE DIMENSIONS
    MAXBOUND =    3562
 END OF CHD BASE DIMENSIONS
    STRT set from input file
    BINARY GRID INFORMATION WILL BE WRITTEN TO:
      UNIT NUMBER: 1016
      FILE NAME: triangle_caseD.disv.grb

 OPENED triangle_caseD.disv.grb
 FILE TYPE:DATA(BINARY)   UNIT 1016   STATUS:REPLACE             
 FORMAT:UNFORMATTED            ACCESS:STREAM              
 ACTION:READWRITE           

      THE LAST TIME STEP WILL BE PRINTED
      THE LAST TIME STEP WILL BE PRINTED
 # File generated by Flopy version 3.9.1 on 02/10/2026 at 00:15:06.

 PROCESSING OC OPTIONS

    BUDGET INFORMATION WILL BE WRITTEN TO:
      UNIT NUMBER: 1017
      FILE NAME: triangle_caseD.cbc

 OPENED triangle_caseD.cbc
 FILE TYPE:DATA(BINARY)   UNIT 1017   STATUS:REPLACE             
 FORMAT:UNFORMATTED            ACCESS:STREAM              
 ACTION:READWRITE           

    HEAD INFORMATION WILL BE WRITTEN TO:
      UNIT NUMBER: 1018
      FILE NAME: triangle_caseD.hds

 OPENED triangle_caseD.hds
 FILE TYPE:DATA(BINARY)   UNIT 1018   STATUS:REPLACE             
 FORMAT:UNFORMATTED            ACCESS:STREAM              
 ACTION:READWRITE           

 END OF OC OPTIONS

start timestep kper="1" kstp="1" mode="normal"


 BEGIN READING OUTPUT CONTROL FOR STRESS PERIOD 1
      THE LAST TIME STEP WILL BE SAVED
      THE LAST TIME STEP WILL BE SAVED
      THE LAST TIME STEP WILL BE PRINTED

 END READING OUTPUT CONTROL FOR STRESS PERIOD 1
 UBDSV1 SAVING     FLOW-JA-FACE ON UNIT   1017 AT TIME STEP      1, STRESS PERIOD      1
 UBDSV06 SAVING       DATA-SPDIS IN MODEL TRIANGLE_CASED   PACKAGE NPF             CONNECTED TO MODEL TRIANGLE_CASED   PACKAGE NPF              ON UNIT   1017 AT TIME STEP      1, STRESS PERIOD      1
 UBDSV06 SAVING              WEL IN MODEL TRIANGLE_CASED   PACKAGE TRIANGLE_CASED  CONNECTED TO MODEL TRIANGLE_CASED   PACKAGE WELL_PACKAGE     ON UNIT   1017 AT TIME STEP      1, STRESS PERIOD      1
 UBDSV06 SAVING              RCH IN MODEL TRIANGLE_CASED   PACKAGE TRIANGLE_CASED  CONNECTED TO MODEL TRIANGLE_CASED   PACKAGE RCH              ON UNIT   1017 AT TIME STEP      1, STRESS PERIOD      1
 UBDSV06 SAVING              EVT IN MODEL TRIANGLE_CASED   PACKAGE TRIANGLE_CASED  CONNECTED TO MODEL TRIANGLE_CASED   PACKAGE EVT              ON UNIT   1017 AT TIME STEP      1, STRESS PERIOD      1
 UBDSV06 SAVING              CHD IN MODEL TRIANGLE_CASED   PACKAGE TRIANGLE_CASED  CONNECTED TO MODEL TRIANGLE_CASED   PACKAGE CHD              ON UNIT   1017 AT TIME STEP      1, STRESS PERIOD      1

 RCH PACKAGE (RCH) FLOW RATES   PERIOD      1   STEP        1
 -----------------------------------------------
   NUMBER   CELLID                    RATE      
 -----------------------------------------------
     1      (1,1)                 6.52260733E-05
     2      (1,2)                 7.09310452E-05
     3      (1,3)                 5.88970412E-07
     4      (1,4)                 6.50588138E-05
     5      (1,5)                 6.05051827E-07
     6      (1,6)                 8.81371011E-07
     7      (1,7)                 1.60237425E-04
     8      (1,8)                 1.99364765E-04
     9      (1,9)                 6.72706095E-07
     10     (1,10)                1.46876533E-06
     11     (1,11)                6.05436800E-07
     12     (1,12)                1.15627096E-06
     13     (1,13)                6.05914957E-07
     14     (1,14)                5.82664377E-07
     15     (1,15)                1.72876941E-06
     16     (1,16)                2.09476116E-06
     17     (1,17)                6.49971097E-07
     18     (1,18)                9.37318503E-07
     19     (1,19)                1.16396620E-04
     20     (1,20)                9.43713242E-05
     21     (1,21)                9.34474352E-06
     22     (1,22)                1.88644767E-06
     23     (1,23)                3.02895630E-06
     24     (1,24)                1.19448182E-06
     25     (1,25)                1.14689029E-04
     26     (1,26)                5.78794595E-05
     27     (1,27)                6.95531049E-07
     28     (1,28)                1.17025809E-06
     29     (1,29)                1.09086947E-06
     30     (1,30)                2.25550862E-06
     31     (1,31)                1.19255286E-06
     32     (1,32)                1.22297845E-06
     33     (1,33)                1.37189955E-06
     34     (1,34)                6.26085075E-07
     35     (1,35)                1.78566037E-06
     36     (1,36)                6.48816698E-07
     37     (1,37)                6.27944050E-07
     38     (1,38)                7.61997995E-04
     39     (1,39)                7.97892822E-05
     40     (1,40)                1.18236964E-06
     41     (1,41)                1.17060201E-06
     42     (1,42)                5.88549858E-07
     43     (1,43)                5.88386685E-07
     44     (1,44)                6.05637843E-07
     45     (1,45)                6.28023055E-07
     46     (1,46)                6.50566069E-07
     47     (1,47)                8.81214132E-07
     48     (1,48)                6.27005631E-07
     49     (1,49)                8.51067441E-05
     50     (1,50)                6.06004796E-07
     51     (1,51)                8.01603222E-04
     52     (1,52)                5.76352459E-05
     53     (1,53)                1.02650926E-06
     54     (1,54)                1.15605003E-06
     55     (1,55)                1.40580351E-06
     56     (1,56)                1.37224248E-06
     57     (1,57)                6.97494977E-07
     58     (1,58)                6.05858113E-07
     59     (1,59)                6.48509995E-07
     60     (1,60)                5.76387158E-05
     61     (1,61)                1.44100280E-06
     62     (1,62)                1.51337909E-06
     63     (1,63)                6.07359993E-07
     64     (1,64)                2.23024257E-06
     65     (1,65)                1.16317443E-06
     66     (1,66)                6.25937725E-07
     67     (1,67)                2.23009878E-06
     68     (1,68)                9.08304244E-07
     69     (1,69)                1.18738451E-06
     70     (1,70)                1.49406477E-06
     71     (1,71)                6.48837483E-07
     72     (1,72)                6.07715918E-07
     73     (1,73)                7.50117101E-07
     74     (1,74)                1.16301961E-06
     75     (1,75)                6.49151937E-07
     76     (1,76)                1.24749883E-06
     77     (1,77)                6.48793808E-07
     78     (1,78)                1.77801309E-06
     79     (1,79)                6.50437325E-07
     80     (1,80)                6.25420190E-07
     81     (1,81)                1.02661636E-06
     82     (1,82)                3.29186898E-04
     83     (1,83)                1.51041709E-06
     84     (1,84)                0.0000000     
     85     (1,85)                1.03354642E-04
     86     (1,86)                9.09897057E-05
     87     (1,87)                3.47465848E-06
     88     (1,88)                5.84837864E-05
     89     (1,89)                2.25426833E-06
     90     (1,90)                2.05878017E-06
     91     (1,91)                4.81908704E-05
     92     (1,92)                4.99776423E-05
     93     (1,93)                6.03988324E-07
     94     (1,94)                9.14375366E-07
     95     (1,95)                1.01535737E-06
     96     (1,96)                4.39748975E-06
     97     (1,97)                1.41408930E-06
     98     (1,98)                1.12840403E-05
     99     (1,99)                2.20214879E-06
    100     (1,100)               1.66212496E-04
    101     (1,101)               5.36233988E-04
    102     (1,102)               9.45778840E-05
    103     (1,103)               6.04597995E-05
    104     (1,104)               5.64297158E-07
    105     (1,105)               9.61530944E-05
    106     (1,106)               1.25984745E-04
    107     (1,107)               0.0000000     
    108     (1,108)               2.46188645E-04
    109     (1,109)               3.38151964E-04
    110     (1,110)               9.63472328E-05
    111     (1,111)               3.10142938E-06
    112     (1,112)               1.69563268E-06
    113     (1,113)               4.83352572E-04
    114     (1,114)               4.32295101E-04
    115     (1,115)               2.74072839E-06
    116     (1,116)               7.50236500E-07
    117     (1,117)               8.92774900E-05
    118     (1,118)               1.31899265E-06
    119     (1,119)               6.15560749E-05
    120     (1,120)               1.45128012E-06
    121     (1,121)               1.39181219E-04
    122     (1,122)               2.14294405E-05
    123     (1,123)               1.36357400E-03
    124     (1,124)               1.61766479E-04
    125     (1,125)               1.20412149E-06
    126     (1,126)               1.29606135E-06
    127     (1,127)               6.38968065E-07
    128     (1,128)               9.52886101E-07
    129     (1,129)               6.83173198E-07
    130     (1,130)               6.96107394E-07
    131     (1,131)               2.27860853E-06
    132     (1,132)               6.82853765E-07
    133     (1,133)               7.74053899E-07
    134     (1,134)               7.91907329E-07
    135     (1,135)               6.70930900E-07
    136     (1,136)               1.24985040E-06
    137     (1,137)               1.88644314E-06
    138     (1,138)               7.92355551E-07
    139     (1,139)               6.70133424E-07
    140     (1,140)               1.54663256E-06
    141     (1,141)               6.46262267E-07
    142     (1,142)               6.96064429E-07
    143     (1,143)               3.04984610E-06
    144     (1,144)               1.14895019E-04
    145     (1,145)               7.08886970E-07
    146     (1,146)               6.58236565E-07
    147     (1,147)               1.24317453E-06
    148     (1,148)               6.58090979E-07
    149     (1,149)               6.82839226E-07
    150     (1,150)               1.22755877E-06
    151     (1,151)               1.24277524E-06
    152     (1,152)               6.82960735E-07
    153     (1,153)               6.38909177E-07
    154     (1,154)               1.12721847E-06
    155     (1,155)               6.82788442E-07
    156     (1,156)               1.66694335E-06
    157     (1,157)               1.01009976E-06
    158     (1,158)               1.57888434E-06
    159     (1,159)               1.48021164E-06
    160     (1,160)               1.57645227E-06
    161     (1,161)               1.10937821E-06
    162     (1,162)               7.08920654E-07
    163     (1,163)               6.57838530E-07
    164     (1,164)               6.38866851E-07
    165     (1,165)               1.86363261E-06
    166     (1,166)               6.70418534E-07
    167     (1,167)               6.82385532E-07
    168     (1,168)               5.83524234E-07
    169     (1,169)               1.11634652E-04
    170     (1,170)               1.57600196E-06
    171     (1,171)               5.74788584E-05
    172     (1,172)               5.04551263E-05
    173     (1,173)               1.13920842E-05
    174     (1,174)               1.49304173E-06
    175     (1,175)               6.48453370E-07
    176     (1,176)               1.82963727E-06
    177     (1,177)               7.68252604E-07
    178     (1,178)               6.07638426E-07
    179     (1,179)               9.57705686E-05
    180     (1,180)               0.13246109    
    181     (1,181)               3.47962107E-06
    182     (1,182)               9.79575856E-05
    183     (1,183)               6.48911135E-07
    184     (1,184)               3.16351974E-06
    185     (1,185)               9.08370862E-07
    186     (1,186)               1.31889120E-05
    187     (1,187)               1.15772014E-06
    188     (1,188)               1.07936067E-04
    189     (1,189)               1.18826811E-06
    190     (1,190)               1.58059259E-06
    191     (1,191)               1.07500091E-06
    192     (1,192)               6.72898551E-07
    193     (1,193)               1.49327189E-06
    194     (1,194)               6.07666003E-07
    195     (1,195)               6.72927238E-07
    196     (1,196)               6.07237285E-07
    197     (1,197)               6.25277778E-07
    198     (1,198)               6.25203350E-07
    199     (1,199)               1.58087582E-06
    200     (1,200)               6.85455050E-07
    201     (1,201)               6.37256882E-07
    202     (1,202)               1.18631670E-06
    203     (1,203)               6.16391571E-07
    204     (1,204)               1.17731458E-06
    205     (1,205)               6.48388509E-07
    206     (1,206)               6.73092548E-07
    207     (1,207)               6.48770478E-07
    208     (1,208)               1.77852900E-06
    209     (1,209)               6.73361868E-07
    210     (1,210)               6.41279641E-07
    211     (1,211)               6.36892059E-07
    212     (1,212)               6.85694414E-07
    213     (1,213)               7.63047424E-07
    214     (1,214)               6.40574161E-07
    215     (1,215)               6.16496488E-07
    216     (1,216)               1.09293595E-06
    217     (1,217)               1.48685962E-06
    218     (1,218)               6.18248247E-07
    219     (1,219)               6.15498893E-04
    220     (1,220)               1.54362970E-06
    221     (1,221)               1.09342992E-06
    222     (1,222)               3.08421153E-04
    223     (1,223)               6.18356592E-07
    224     (1,224)               2.27718623E-06
    225     (1,225)               1.23140889E-06
    226     (1,226)               1.86036189E-06
    227     (1,227)               6.60698090E-07
    228     (1,228)               7.81047114E-07
    229     (1,229)               1.86064752E-06
    230     (1,230)               2.22049471E-06
    231     (1,231)               7.81146957E-07
    232     (1,232)               6.85571555E-07
    233     (1,233)               6.18686169E-07
    234     (1,234)               1.80887731E-06
    235     (1,235)               6.85873704E-07
    236     (1,236)               1.86063386E-06
    237     (1,237)               1.04700467E-06
    238     (1,238)               1.20702340E-06
    239     (1,239)               1.61922845E-05
    240     (1,240)               6.37158433E-07
    241     (1,241)               6.85555271E-07
    242     (1,242)               6.18606960E-07
    243     (1,243)               7.63340579E-07
    244     (1,244)               1.61149549E-06
    245     (1,245)               6.61012522E-07
    246     (1,246)               1.23204166E-06
    247     (1,247)               6.60800511E-07
    248     (1,248)               7.80932919E-07
    249     (1,249)               6.60688122E-07
    250     (1,250)               6.41104979E-07
    251     (1,251)               1.48727394E-06
    252     (1,252)               1.45323817E-02
    253     (1,253)               2.18171267E-06
    254     (1,254)               5.83341414E-04
    255     (1,255)               6.27037639E-07
    256     (1,256)               6.74538903E-07
    257     (1,257)               1.16049442E-06
    258     (1,258)               6.50366532E-07
    259     (1,259)               6.50263480E-07
    260     (1,260)               1.83592653E-06
    261     (1,261)               1.49652149E-06
    262     (1,262)               7.52600697E-07
    263     (1,263)               1.83668868E-06
    264     (1,264)               6.50509229E-07
    265     (1,265)               7.69799624E-07
    266     (1,266)               1.29383246E-06
    267     (1,267)               1.16600795E-06
    268     (1,268)               7.69898913E-07
    269     (1,269)               6.51382422E-07
    270     (1,270)               6.27402853E-07
    271     (1,271)               1.78349937E-06
    272     (1,272)               6.50555539E-07
    273     (1,273)               6.08880459E-07
    274     (1,274)               1.49563213E-06
    275     (1,275)               1.78359409E-06
    276     (1,276)               6.48841638E-07
    277     (1,277)               6.74083407E-07
    278     (1,278)               1.21366539E-06
    279     (1,279)               6.50144836E-07
    280     (1,280)               1.19170063E-06
    281     (1,281)               6.27089861E-07
    282     (1,282)               1.06039258E-06
    283     (1,283)               1.58374746E-06
    284     (1,284)               1.21375981E-06
    285     (1,285)               1.06002965E-06
    286     (1,286)               6.74349795E-07
    287     (1,287)               1.49620331E-06
    288     (1,288)               1.19186142E-06
    289     (1,289)               6.49901932E-07
    290     (1,290)               1.19155017E-06
    291     (1,291)               6.50291259E-07
    292     (1,292)               6.19391169E-07
    293     (1,293)               1.16644325E-06
    294     (1,294)               6.09427713E-07
    295     (1,295)               6.48725833E-07
    296     (1,296)               1.56678328E-06
    297     (1,297)               1.89076300E-06
    298     (1,298)               6.75712715E-07
    299     (1,299)               6.49006068E-07
    300     (1,300)               1.33825990E-06
    301     (1,301)               1.53852729E-06
    302     (1,302)               1.25980721E-06
    303     (1,303)               6.49508134E-07
    304     (1,304)               7.20603071E-07
    305     (1,305)               7.85059652E-06
    306     (1,306)               6.68618089E-07
    307     (1,307)               1.35573922E-06
    308     (1,308)               7.01454996E-07
    309     (1,309)               6.76043792E-07
    310     (1,310)               6.94655803E-07
    311     (1,311)               2.34424848E-06
    312     (1,312)               1.71215835E-06
    313     (1,313)               1.23842565E-03
    314     (1,314)               1.17544030E-06
    315     (1,315)               8.16406257E-04
    316     (1,316)               1.03929283E-06
    317     (1,317)               1.15983544E-06
    318     (1,318)               6.56795878E-07
    319     (1,319)               2.23388073E-06
    320     (1,320)               6.09501973E-07
    321     (1,321)               6.28214887E-07
    322     (1,322)               6.55396911E-07
    323     (1,323)               1.05661601E-06
    324     (1,324)               2.21261882E-06
    325     (1,325)               6.55066143E-07
    326     (1,326)               1.49806629E-06
    327     (1,327)               6.76261659E-07
    328     (1,328)               6.56756291E-07
    329     (1,329)               2.36139700E-06
    330     (1,330)               1.11422535E-06
    331     (1,331)               6.76123969E-07
    332     (1,332)               6.81828819E-07
    333     (1,333)               6.57007580E-07
    334     (1,334)               6.55216704E-07
    335     (1,335)               1.58667730E-06
    336     (1,336)               6.68292343E-07
    337     (1,337)               8.33154007E-04
    338     (1,338)               6.42830978E-07
    339     (1,339)               6.49466202E-07
    340     (1,340)               7.02080876E-07
    341     (1,341)               2.36236077E-06
    342     (1,342)               2.41228608E-04
    343     (1,343)               5.77121554E-05
    344     (1,344)               3.67422166E-04
    345     (1,345)               6.62675224E-07
    346     (1,346)               1.98381886E-06
    347     (1,347)               9.86353358E-05
    348     (1,348)               1.25805151E-06
    349     (1,349)               7.22538584E-05
    350     (1,350)               2.17931090E-04
    351     (1,351)               1.60435021E-06
    352     (1,352)               1.34983620E-06
    353     (1,353)               1.28443937E-06
    354     (1,354)               6.82566371E-07
    355     (1,355)               1.32245904E-06
    356     (1,356)               7.08892440E-07
    357     (1,357)               1.92689006E-06
    358     (1,358)               7.36362810E-07
    359     (1,359)               1.52063995E-06
    360     (1,360)               8.15833432E-07
    361     (1,361)               6.67960892E-05
    362     (1,362)               6.89713730E-07
    363     (1,363)               3.10551292E-05
    364     (1,364)               1.63263069E-06
    365     (1,365)               1.05514990E-06
    366     (1,366)               6.40768130E-07
    367     (1,367)               3.70891847E-06
    368     (1,368)               9.28267765E-07
    369     (1,369)               8.34644522E-07
    370     (1,370)               8.15342344E-07
    371     (1,371)               7.36299853E-07
    372     (1,372)               6.64609127E-07
    373     (1,373)               1.10083938E-04
    374     (1,374)               8.35094181E-07
    375     (1,375)               4.85196356E-05
    376     (1,376)               1.27559609E-06
    377     (1,377)               1.02883707E-04
    378     (1,378)               8.14370660E-05
    379     (1,379)               1.81661016E-06
    380     (1,380)               5.28207479E-05
    381     (1,381)               3.24582469E-05
    382     (1,382)               1.46899767E-06
    383     (1,383)               5.17675190E-05
    384     (1,384)               5.72940048E-05
    385     (1,385)               6.19125665E-07
    386     (1,386)               6.37116414E-07
    387     (1,387)               1.12596416E-04
    388     (1,388)               9.25606044E-07
    389     (1,389)               1.03820691E-04
    390     (1,390)               5.61481452E-04
    391     (1,391)               7.64770055E-07
    392     (1,392)               7.82335850E-07
    393     (1,393)               1.48417092E-06
    394     (1,394)               1.12085298E-04
    395     (1,395)               1.21101441E-06
    396     (1,396)               7.82251151E-07
    397     (1,397)               6.60592209E-07
    398     (1,398)               9.29394632E-04
    399     (1,399)               1.76667894E-06
    400     (1,400)               6.85669335E-07
    401     (1,401)               9.15901073E-05
    402     (1,402)               1.17520131E-06
    403     (1,403)               1.45967690E-04
    404     (1,404)               5.72887878E-05
    405     (1,405)               8.35176306E-07
    406     (1,406)               1.87633322E-06
    407     (1,407)               2.12147093E-04
    408     (1,408)               6.91880610E-07
    409     (1,409)               5.84710711E-05
    410     (1,410)               6.64479747E-07
    411     (1,411)               6.37161000E-07
    412     (1,412)               6.19023663E-07
    413     (1,413)               1.18480178E-06
    414     (1,414)               6.60579218E-07
    415     (1,415)               1.53562604E-06
    416     (1,416)               1.57680494E-06
    417     (1,417)               1.54095275E-06
    418     (1,418)               9.83510934E-07
    419     (1,419)               6.18692880E-07
    420     (1,420)               2.26844131E-06
    421     (1,421)               6.85261485E-07
    422     (1,422)               4.84071681E-05
    423     (1,423)               1.14818257E-06
    424     (1,424)               6.85655849E-07
    425     (1,425)               1.55372425E-04
    426     (1,426)               3.74707152E-05
    427     (1,427)               7.24018816E-05
    428     (1,428)               1.91037593E-04
    429     (1,429)               1.02242549E-04
    430     (1,430)               1.26110606E-03
    431     (1,431)               9.44388006E-04
    432     (1,432)               3.06507579E-04
    433     (1,433)               1.10925335E-04
    434     (1,434)               8.50896937E-05
    435     (1,435)               9.56138720E-05
    436     (1,436)               4.76210432E-05
    437     (1,437)               2.96415670E-06
    438     (1,438)               5.42185537E-07
    439     (1,439)               1.12078243E-04
    440     (1,440)               1.20934954E-03
    441     (1,441)               7.25781707E-05
    442     (1,442)               1.49995821E-05
    443     (1,443)               7.23494842E-05
    444     (1,444)               5.23987985E-05
    445     (1,445)               7.17032730E-05
    446     (1,446)               3.12732642E-04
    447     (1,447)               1.51888090E-06
    448     (1,448)               6.83710962E-07
    449     (1,449)               6.83636010E-07
    450     (1,450)               1.27078864E-06
    451     (1,451)               1.18395212E-06
    452     (1,452)               9.72249526E-07
    453     (1,453)               6.15785137E-07
    454     (1,454)               6.34511598E-07
    455     (1,455)               1.60841642E-06
    456     (1,456)               6.34597311E-07
    457     (1,457)               3.68234673E-06
    458     (1,458)               6.83599254E-07
    459     (1,459)               1.22776318E-06
    460     (1,460)               1.06904181E-06
    461     (1,461)               6.58953583E-07
    462     (1,462)               6.37597609E-07
    463     (1,463)               6.58560136E-07
    464     (1,464)               6.87149420E-05
    465     (1,465)               6.83398887E-07
    466     (1,466)               1.63976922E-06
    467     (1,467)               6.21974654E-07
    468     (1,468)               1.41870488E-06
    469     (1,469)               1.84879102E-04
    470     (1,470)               6.20504199E-07
    471     (1,471)               1.49740967E-06
    472     (1,472)               1.09835121E-06
    473     (1,473)               6.45504278E-07
    474     (1,474)               6.21919319E-07
    475     (1,475)               1.34147035E-05
    476     (1,476)               1.05502461E-06
    477     (1,477)               1.41796608E-06
    478     (1,478)               1.13850414E-05
    479     (1,479)               6.40408535E-07
    480     (1,480)               6.89449175E-07
    481     (1,481)               7.67266976E-07
    482     (1,482)               9.28321499E-07
    483     (1,483)               6.20671458E-07
    484     (1,484)               6.40789948E-07
    485     (1,485)               6.45404982E-07
    486     (1,486)               1.21228218E-06
    487     (1,487)               1.86905234E-06
    488     (1,488)               6.20535841E-07
    489     (1,489)               6.89925089E-07
    490     (1,490)               6.64913457E-07
    491     (1,491)               1.08484228E-04
    492     (1,492)               6.40858427E-07
    493     (1,493)               1.19342454E-06
    494     (1,494)               6.21996253E-07
    495     (1,495)               7.84858266E-07
    496     (1,496)               1.76809234E-06
    497     (1,497)               1.62231623E-06
    498     (1,498)               6.64372777E-07
    499     (1,499)               7.67145616E-07
    500     (1,500)               7.85524307E-07
    501     (1,501)               6.64341352E-07
    502     (1,502)               1.48855526E-04
    503     (1,503)               1.86950813E-06
    504     (1,504)               3.92235297E-04
    505     (1,505)               6.64759335E-07
    506     (1,506)               7.84677990E-07
    507     (1,507)               5.26568537E-05
    508     (1,508)               2.00971846E-04
    509     (1,509)               6.64751092E-07
    510     (1,510)               5.48033992E-05
    511     (1,511)               3.62047966E-04
    512     (1,512)               0.0000000     
    513     (1,513)               8.69826832E-07
    514     (1,514)               9.35489053E-05
    515     (1,515)               1.78761466E-05
    516     (1,516)               9.33021050E-05
    517     (1,517)               9.33426453E-04
    518     (1,518)               1.27209367E-05
    519     (1,519)               9.03462628E-05
    520     (1,520)               1.19284760E-06
    521     (1,521)               3.78690756E-06
    522     (1,522)               1.38520572E-06
    523     (1,523)               5.29199533E-07
    524     (1,524)               2.12725251E-06
    525     (1,525)               8.96115347E-07
    526     (1,526)               1.59480317E-06
    527     (1,527)               5.46280925E-07
    528     (1,528)               5.44627078E-07
    529     (1,529)               1.00786158E-06
    530     (1,530)               5.90810517E-07
    531     (1,531)               1.03603356E-06
    532     (1,532)               5.65060772E-07
    533     (1,533)               4.83336450E-05
    534     (1,534)               9.24213482E-05
    535     (1,535)               7.31302000E-05
    536     (1,536)               1.29811312E-05
    537     (1,537)               5.64752914E-07
    538     (1,538)               5.89086099E-05
    539     (1,539)               1.03654299E-06
    540     (1,540)               5.39960401E-07
    541     (1,541)               1.18188546E-06
    542     (1,542)               5.44621103E-07
    543     (1,543)               1.05440572E-06
    544     (1,544)               5.19402049E-07
    545     (1,545)               1.37536799E-06
    546     (1,546)               6.25909972E-07
    547     (1,547)               5.19344674E-07
    548     (1,548)               5.28865706E-07
    549     (1,549)               1.55083836E-06
    550     (1,550)               1.61633851E-05
    551     (1,551)               1.82071290E-04
    552     (1,552)               6.53435902E-07
    553     (1,553)               1.05124808E-06
    554     (1,554)               6.35092615E-07
    555     (1,555)               5.94676012E-07
    556     (1,556)               1.46204916E-06
    557     (1,557)               6.35269338E-07
    558     (1,558)               8.88371755E-07
    559     (1,559)               1.48100914E-06
    560     (1,560)               1.73852874E-06
    561     (1,561)               9.43472986E-07
    562     (1,562)               1.13886653E-06
    563     (1,563)               1.47315148E-06
    564     (1,564)               1.48280727E-06
    565     (1,565)               6.11819319E-07
    566     (1,566)               6.58552359E-07
    567     (1,567)               6.11984238E-07
    568     (1,568)               5.94822012E-07
    569     (1,569)               6.34922908E-07
    570     (1,570)               3.09053591E-04
    571     (1,571)               1.16095578E-06
    572     (1,572)               1.46188335E-06
    573     (1,573)               1.03381097E-06
    574     (1,574)               1.42579637E-06
    575     (1,575)               1.03285182E-06
    576     (1,576)               1.16028300E-06
    577     (1,577)               6.57643173E-07
    578     (1,578)               1.16059629E-06
    579     (1,579)               6.14284969E-07
    580     (1,580)               7.57397816E-06
    581     (1,581)               1.18293582E-06
    582     (1,582)               6.48978152E-07
    583     (1,583)               6.04620598E-07
    584     (1,584)               1.73732318E-06
    585     (1,585)               7.04928162E-06
    586     (1,586)               1.07137272E-02
    587     (1,587)               1.27358123E-02
    588     (1,588)               5.94447717E-07
    589     (1,589)               4.67017835E-05
    590     (1,590)               6.11610836E-07
    591     (1,591)               2.66806157E-02
    592     (1,592)               6.34301055E-07
    593     (1,593)               1.46156604E-06
    594     (1,594)               2.96967863E-03
    595     (1,595)               6.68571496E-07
    596     (1,596)               1.22724153E-06
    597     (1,597)               9.33943026E-05
    598     (1,598)               6.39435412E-07
    599     (1,599)               5.93607914E-07
    600     (1,600)               9.70249626E-05
    601     (1,601)               6.11205546E-07
    602     (1,602)               8.90881894E-07
    603     (1,603)               9.17018671E-05
    604     (1,604)               9.33219905E-05
    605     (1,605)               5.94350199E-07
    606     (1,606)               1.03859276E-06
    607     (1,607)               1.68472386E-06
    608     (1,608)               7.29186841E-07
    609     (1,609)               6.10895921E-07
    610     (1,610)               1.17174566E-06
    611     (1,611)               1.41425009E-06
    612     (1,612)               1.37878084E-06
    613     (1,613)               1.74975789E-06
    614     (1,614)               6.09167122E-07
    615     (1,615)               6.73551731E-07
    616     (1,616)               5.87303702E-07
    617     (1,617)               6.15659882E-07
    618     (1,618)               2.21449959E-06
    619     (1,619)               2.33988642E-05
    620     (1,620)               1.04284546E-05
    621     (1,621)               5.99145292E-07
    622     (1,622)               7.36327498E-07
    623     (1,623)               5.87700140E-05
    624     (1,624)               7.56886800E-07
    625     (1,625)               7.02309413E-07
    626     (1,626)               1.68497983E-06
    627     (1,627)               7.28995785E-07
    628     (1,628)               1.29461663E-06
    629     (1,629)               7.02460632E-07
    630     (1,630)               7.29157887E-07
    631     (1,631)               7.57193034E-07
    632     (1,632)               1.98588139E-06
    633     (1,633)               1.32429945E-06
    634     (1,634)               6.81729464E-07
    635     (1,635)               1.41964127E-06
    636     (1,636)               1.17985900E-06
    637     (1,637)               6.85359457E-07
    638     (1,638)               7.56944930E-07
    639     (1,639)               1.47965279E-06
    640     (1,640)               8.02146943E-07
    641     (1,641)               8.59865510E-07
    642     (1,642)               1.70950839E-06
    643     (1,643)               2.52767892E-06
    644     (1,644)               7.19459626E-07
    645     (1,645)               3.16988556E-05
    646     (1,646)               1.15434173E-06
    647     (1,647)               7.66972488E-04
    648     (1,648)               1.28326010E-02
    649     (1,649)               1.26231714E-06
    650     (1,650)               0.11905387    
    651     (1,651)               7.19407463E-07
    652     (1,652)               1.82034140E-06
    653     (1,653)               1.89128359E-06
    654     (1,654)               7.41795526E-07
    655     (1,655)               2.70460657E-06
    656     (1,656)               7.42494196E-07
    657     (1,657)               8.39599432E-07
    658     (1,658)               7.70891501E-07
    659     (1,659)               2.04461722E-06
    660     (1,660)               7.29007307E-07
    661     (1,661)               1.98533999E-06
    662     (1,662)               7.28711194E-07
    663     (1,663)               7.57176814E-07
    664     (1,664)               6.81816108E-07
    665     (1,665)               1.35681631E-06
    666     (1,666)               1.32420053E-06
    667     (1,667)               1.35590412E-06
    668     (1,668)               1.78202804E-06
    669     (1,669)               7.29645130E-07
    670     (1,670)               1.32481186E-06
    671     (1,671)               6.10658483E-04
    672     (1,672)               7.29484597E-07
    673     (1,673)               7.29372323E-07
    674     (1,674)               1.18308190E-06
    675     (1,675)               2.15329943E-06
    676     (1,676)               1.18198910E-06
    677     (1,677)               7.28978127E-07
    678     (1,678)               8.59679255E-07
    679     (1,679)               1.31116778E-06
    680     (1,680)               4.10895518E-02
    681     (1,681)               1.26534825E-02
    682     (1,682)               5.88505820E-05
    683     (1,683)               1.76526672E-06
    684     (1,684)               5.98236524E-03
    685     (1,685)               4.72682502E-02
    686     (1,686)               6.98775803E-05
    687     (1,687)               7.15871522E-08
    688     (1,688)               3.06377943E-03
    689     (1,689)               4.10599198E-03
    690     (1,690)               5.13818827E-04
    691     (1,691)               2.40770785E-04
    692     (1,692)               6.31648139E-04
    693     (1,693)               1.50237590E-02
    694     (1,694)               0.0000000     
    695     (1,695)               2.46809917E-04
    696     (1,696)               3.55233716E-04
    697     (1,697)               8.56517864E-03
    698     (1,698)               0.0000000     
    699     (1,699)               2.13062071E-03
    700     (1,700)               0.0000000     
    701     (1,701)               6.25734963E-03
    702     (1,702)               1.08044918E-02
    703     (1,703)               0.0000000     
    704     (1,704)               1.01944957E-02
    705     (1,705)               1.81684059E-02
    706     (1,706)               1.63602244E-02
    707     (1,707)               1.23154476E-03
    708     (1,708)               0.0000000     
    709     (1,709)               1.98728922E-03
    710     (1,710)               2.58717877E-03
    711     (1,711)               0.0000000     
    712     (1,712)               7.82444393E-03
    713     (1,713)               2.20912503E-04
    714     (1,714)               3.05489863E-04
    715     (1,715)               2.63783033E-03
    716     (1,716)               6.72052326E-03
    717     (1,717)               2.91519772E-03
    718     (1,718)               4.96687950E-04
    719     (1,719)               1.31330198E-04
    720     (1,720)               4.16415503E-04
    721     (1,721)               3.55556138E-04
    722     (1,722)               9.67776728E-05
    723     (1,723)               0.0000000     
    724     (1,724)               1.46627818E-02
    725     (1,725)               7.04660873E-04
    726     (1,726)               1.67605287E-03
    727     (1,727)               4.95930021E-04
    728     (1,728)               4.11916729E-04
    729     (1,729)               1.10511860E-04
    730     (1,730)               2.01369091E-04
    731     (1,731)               2.43982946E-04
    732     (1,732)               0.11839348    
    733     (1,733)               1.14284512E-02
    734     (1,734)               2.53291571E-04
    735     (1,735)               2.48327323E-04
    736     (1,736)               4.11578903E-03
    737     (1,737)               5.48773467E-05
    738     (1,738)               7.90987620E-04
    739     (1,739)               0.0000000     
    740     (1,740)               5.02811031E-02
    741     (1,741)               6.46265830E-04
    742     (1,742)               7.99256231E-04
    743     (1,743)               2.64985198E-03
    744     (1,744)               3.76249513E-03
    745     (1,745)               3.24837382E-04
    746     (1,746)               2.99269456E-03
    747     (1,747)               4.98043734E-03
    748     (1,748)               0.0000000     
    749     (1,749)               1.28271360E-03
    750     (1,750)               1.27331740E-04
    751     (1,751)               7.27387523E-03
    752     (1,752)               0.0000000     
    753     (1,753)               3.41652844E-03
    754     (1,754)               1.60831034E-02
    755     (1,755)               0.0000000     
    756     (1,756)               4.21132178E-03
    757     (1,757)               1.11275731E-04
    758     (1,758)               1.63896832E-03
    759     (1,759)               3.41887456E-04
    760     (1,760)               3.60279575E-04
    761     (1,761)               8.96348426E-04
    762     (1,762)               3.75634194E-04
    763     (1,763)               3.75894312E-04
    764     (1,764)               5.30312793E-04
    765     (1,765)               5.19658021E-02
    766     (1,766)               8.11354384E-05
    767     (1,767)               3.93284806E-04
    768     (1,768)               6.55819571E-03
    769     (1,769)               1.24913433E-02
    770     (1,770)               2.09874865E-04
    771     (1,771)               0.0000000     
    772     (1,772)               3.10286288E-04
    773     (1,773)               8.33803172E-04
    774     (1,774)               9.85636808E-05
    775     (1,775)               8.25567127E-07
    776     (1,776)               1.24515809E-06
    777     (1,777)               1.10654736E-04
    778     (1,778)               2.55039530E-02
    779     (1,779)               1.61503297E-06
    780     (1,780)               1.61611547E-06
    781     (1,781)               7.26836454E-07
    782     (1,782)               1.85865554E-06
    783     (1,783)               8.07133043E-07
    784     (1,784)               1.15515776E-06
    785     (1,785)               7.27593779E-07
    786     (1,786)               6.74707162E-07
    787     (1,787)               9.77436426E-07
    788     (1,788)               6.99801940E-07
    789     (1,789)               6.55824496E-07
    790     (1,790)               1.25824877E-06
    791     (1,791)               7.27741961E-07
    792     (1,792)               1.03556995E-06
    793     (1,793)               6.75956482E-07
    794     (1,794)               6.54990634E-07
    795     (1,795)               7.01384488E-07
    796     (1,796)               1.26053764E-06
    797     (1,797)               6.76156973E-07
    798     (1,798)               7.01301734E-07
    799     (1,799)               6.55326499E-07
    800     (1,800)               6.54772649E-07
    801     (1,801)               7.01126229E-07
    802     (1,802)               7.27889357E-07
    803     (1,803)               1.15663860E-06
    804     (1,804)               6.75480136E-07
    805     (1,805)               7.27734870E-07
    806     (1,806)               7.01884910E-07
    807     (1,807)               6.55580353E-07
    808     (1,808)               1.71190885E-06
    809     (1,809)               1.61937987E-06
    810     (1,810)               1.27595014E-06
    811     (1,811)               1.03117335E-05
    812     (1,812)               6.40629557E-07
    813     (1,813)               8.51045894E-03
    814     (1,814)               0.0000000     
    815     (1,815)               4.73755524E-07
    816     (1,816)               8.20711633E-07
    817     (1,817)               1.17310413E-06
    818     (1,818)               5.06838971E-07
    819     (1,819)               0.10312403    
    820     (1,820)               9.00219847E-07
    821     (1,821)               4.86403814E-07
    822     (1,822)               4.71791915E-07
    823     (1,823)               1.84113136E-06
    824     (1,824)               6.57542889E-03
    825     (1,825)               9.17302552E-07
    826     (1,826)               1.37386746E-06
    827     (1,827)               5.04571021E-07
    828     (1,828)               5.06212288E-07
    829     (1,829)               4.87939740E-07
    830     (1,830)               8.99323913E-07
    831     (1,831)               5.26565786E-07
    832     (1,832)               1.32601327E-02
    833     (1,833)               8.54004394E-07
    834     (1,834)               1.61771669E-06
    835     (1,835)               1.22849856E-06
    836     (1,836)               7.00347747E-07
    837     (1,837)               1.33864504E-06
    838     (1,838)               5.07349389E-07
    839     (1,839)               4.90778405E-07
    840     (1,840)               4.77275381E-07
    841     (1,841)               5.98303944E-07
    842     (1,842)               1.42016754E-06
    843     (1,843)               3.22244651E-06
    844     (1,844)               8.20586163E-06
    845     (1,845)               5.24695383E-07
    846     (1,846)               9.52314410E-07
    847     (1,847)               5.24650943E-07
    848     (1,848)               5.07211475E-07
    849     (1,849)               7.19329252E-07
    850     (1,850)               5.27638436E-07
    851     (1,851)               1.70843526E-03
    852     (1,852)               8.39263097E-07
    853     (1,853)               7.00928230E-07
    854     (1,854)               2.51574293E-04
    855     (1,855)               7.90200267E-03
    856     (1,856)               0.0000000     
    857     (1,857)               1.19076647E-02
    858     (1,858)               3.54916149E-03
    859     (1,859)               7.86357333E-04
    860     (1,860)               9.03426970E-04
    861     (1,861)               3.57186610E-04
    862     (1,862)               3.24452902E-04
    863     (1,863)               6.12232696E-04
    864     (1,864)               5.94563013E-05
    865     (1,865)               2.07924263E-03
    866     (1,866)               7.61811632E-05
    867     (1,867)               7.55702832E-02
    868     (1,868)               2.22203118E-03
    869     (1,869)               8.82805031E-04
    870     (1,870)               3.51841896E-04
    871     (1,871)               6.61734208E-05
    872     (1,872)               1.37370791E-03
    873     (1,873)               5.45150516E-04
    874     (1,874)               8.00137818E-03
    875     (1,875)               4.39878316E-04
    876     (1,876)               5.50063058E-04
    877     (1,877)               3.04303071E-03
    878     (1,878)               1.79775931E-02
    879     (1,879)               2.91283597E-04
    880     (1,880)               1.53329828E-03
    881     (1,881)               2.43546197E-03
    882     (1,882)               7.28958322E-04
    883     (1,883)               2.06869158E-04
    884     (1,884)               1.43703497E-03
    885     (1,885)               2.96661665E-04
    886     (1,886)               2.89563829E-03
    887     (1,887)               5.29365664E-04
    888     (1,888)               1.11200568E-03
    889     (1,889)               8.64947537E-04
    890     (1,890)               1.20935915E-03
    891     (1,891)               7.67573993E-04
    892     (1,892)               1.86519607E-03
    893     (1,893)               1.12233730E-03
    894     (1,894)               7.53965697E-04
    895     (1,895)               1.10383390E-03
    896     (1,896)               7.04646818E-04
    897     (1,897)               1.37498682E-03
    898     (1,898)               5.98703991E-03
    899     (1,899)               1.07160626E-03
    900     (1,900)               1.75996846E-04
    901     (1,901)               1.11797345E-04
    902     (1,902)               2.88381181E-04
    903     (1,903)               1.48277610E-04
    904     (1,904)               1.85435461E-04
    905     (1,905)               6.31822732E-04
    906     (1,906)               1.85928103E-03
    907     (1,907)               5.98013743E-04
    908     (1,908)               2.54193383E-03
    909     (1,909)               4.07123528E-04
    910     (1,910)               5.93177864E-04
    911     (1,911)               7.55641727E-04
    912     (1,912)               7.54245230E-04
    913     (1,913)               2.33398061E-03
    914     (1,914)               9.13848445E-04
    915     (1,915)               2.02271472E-03
    916     (1,916)               3.11983018E-04
    917     (1,917)               2.82833571E-04
    918     (1,918)               9.95954886E-04
    919     (1,919)               7.09153863E-04
    920     (1,920)               9.33651895E-04
    921     (1,921)               9.18084125E-04
    922     (1,922)               6.09386944E-04
    923     (1,923)               1.03733322E-03
    924     (1,924)               1.14661110E-03
    925     (1,925)               7.55304765E-04
    926     (1,926)               6.81117670E-04
    927     (1,927)               2.10031813E-04
    928     (1,928)               4.18051367E-04
    929     (1,929)               6.47611823E-04
    930     (1,930)               4.12952919E-04
    931     (1,931)               5.22252749E-04
    932     (1,932)               5.56289735E-04
    933     (1,933)               1.04462285E-03
    934     (1,934)               2.55485076E-03
    935     (1,935)               3.38509449E-04
    936     (1,936)               7.15586694E-04
    937     (1,937)               1.07004538E-03
    938     (1,938)               2.15936850E-04
    939     (1,939)               4.84181831E-04
    940     (1,940)               8.58288087E-04
    941     (1,941)               7.62937808E-04
    942     (1,942)               6.17207292E-03
    943     (1,943)               9.59082604E-04
    944     (1,944)               6.36187633E-04
    945     (1,945)               4.85940612E-04
    946     (1,946)               7.08829606E-04
    947     (1,947)               2.60704973E-04
    948     (1,948)               8.98291465E-04
    949     (1,949)               8.86894349E-04
    950     (1,950)               2.77410824E-04
    951     (1,951)               5.06532656E-04
    952     (1,952)               1.60262369E-03
    953     (1,953)               2.98649138E-04
    954     (1,954)               5.24082254E-04
    955     (1,955)               3.56183600E-04
    956     (1,956)               1.12015426E-03
    957     (1,957)               8.06573658E-04
    958     (1,958)               1.80982158E-03
    959     (1,959)               2.88301174E-04
    960     (1,960)               5.20638608E-03
    961     (1,961)               4.83764727E-04
    962     (1,962)               4.89028748E-04
    963     (1,963)               8.79084947E-04
    964     (1,964)               5.97269408E-04
    965     (1,965)               4.52271779E-04
    966     (1,966)               4.72894724E-04
    967     (1,967)               1.37259380E-03
    968     (1,968)               6.34113298E-04
    969     (1,969)               2.00230967E-04
    970     (1,970)               5.49430573E-04
    971     (1,971)               3.20550343E-04
    972     (1,972)               1.41631725E-04
    973     (1,973)               5.86328251E-04
    974     (1,974)               9.78799249E-05
    975     (1,975)               5.55568270E-04
    976     (1,976)               5.81472694E-04
    977     (1,977)               4.65210604E-04
    978     (1,978)               3.03465532E-04
    979     (1,979)               3.95926408E-04
    980     (1,980)               7.06971424E-04
    981     (1,981)               3.33299456E-03
    982     (1,982)               1.72934734E-03
    983     (1,983)               4.91374428E-04
    984     (1,984)               5.59986738E-04
    985     (1,985)               2.96929565E-04
    986     (1,986)               3.58887259E-04
    987     (1,987)               2.03408977E-03
    988     (1,988)               1.72989112E-04
    989     (1,989)               2.07426676E-03
    990     (1,990)               5.48682649E-04
    991     (1,991)               2.75155945E-04
    992     (1,992)               5.45273845E-04
    993     (1,993)               1.08019206E-03
    994     (1,994)               1.19864942E-03
    995     (1,995)               8.82078140E-05
    996     (1,996)               1.17308331E-03
    997     (1,997)               3.01546764E-04
    998     (1,998)               2.50751720E-04
    999     (1,999)               1.91584737E-04
    1000    (1,1000)              8.87965179E-04
    1001    (1,1001)              7.01991087E-04
    1002    (1,1002)              1.60141656E-03
    1003    (1,1003)              1.11586592E-03
    1004    (1,1004)              2.39959198E-03
    1005    (1,1005)              8.50553948E-04
    1006    (1,1006)              7.25145989E-04
    1007    (1,1007)              1.21591316E-03
    1008    (1,1008)              2.82948534E-03
    1009    (1,1009)              6.45907110E-04
    1010    (1,1010)              2.59665900E-03
    1011    (1,1011)              1.31085263E-03
    1012    (1,1012)              5.89356971E-04
    1013    (1,1013)              1.29615454E-03
    1014    (1,1014)              6.42889001E-04
    1015    (1,1015)              7.38977898E-04
    1016    (1,1016)              7.40408556E-04
    1017    (1,1017)              2.47735107E-03
    1018    (1,1018)              1.21006765E-03
    1019    (1,1019)              3.16703230E-04
    1020    (1,1020)              1.36653191E-03
    1021    (1,1021)              9.77888906E-04
    1022    (1,1022)              1.93759456E-03
    1023    (1,1023)              8.66205944E-04
    1024    (1,1024)              2.50901262E-03
    1025    (1,1025)              2.01611544E-04
    1026    (1,1026)              1.02043927E-03
    1027    (1,1027)              1.88203816E-03
    1028    (1,1028)              5.14903985E-03
    1029    (1,1029)              7.01038661E-07
    1030    (1,1030)              8.92798060E-02
    1031    (1,1031)              7.02032617E-07
    1032    (1,1032)              6.76435609E-07
    1033    (1,1033)              1.91871331E-06
    1034    (1,1034)              1.35641912E-06
    1035    (1,1035)              7.28624789E-07
    1036    (1,1036)              7.02431731E-07
    1037    (1,1037)              6.57055797E-07
    1038    (1,1038)              7.28630493E-07
    1039    (1,1039)              1.91224311E-06
    1040    (1,1040)              1.35380790E-06
    1041    (1,1041)              6.18495218E-07
    1042    (1,1042)              3.37436633E-06
    1043    (1,1043)              3.28807111E-04
    1044    (1,1044)              1.26160474E-06
    1045    (1,1045)              1.71444200E-06
    1046    (1,1046)              1.50522514E-06
    1047    (1,1047)              1.28078831E-06
    1048    (1,1048)              1.29162275E-06
    1049    (1,1049)              1.10503016E-06
    1050    (1,1050)              6.91508310E-07
    1051    (1,1051)              9.33941640E-07
    1052    (1,1052)              6.20698942E-07
    1053    (1,1053)              6.91246223E-07
    1054    (1,1054)              6.42640762E-07
    1055    (1,1055)              1.19513664E-06
    1056    (1,1056)              6.24326117E-07
    1057    (1,1057)              2.11362418E-06
    1058    (1,1058)              5.05475882E-06
    1059    (1,1059)              1.05111239E-06
    1060    (1,1060)              6.42903335E-07
    1061    (1,1061)              6.24363875E-07
    1062    (1,1062)              1.41502028E-06
    1063    (1,1063)              6.20443562E-07
    1064    (1,1064)              9.91706859E-07
    1065    (1,1065)              6.45128624E-07
    1066    (1,1066)              1.00879111E-06
    1067    (1,1067)              6.55767080E-02
    1068    (1,1068)              6.45155663E-07
    1069    (1,1069)              6.67088503E-07
    1070    (1,1070)              6.18849170E-07
    1071    (1,1071)              5.96143249E-07
    1072    (1,1072)              6.17879454E-07
    1073    (1,1073)              5.78742476E-07
    1074    (1,1074)              6.18097376E-07
    1075    (1,1075)              6.40821915E-07
    1076    (1,1076)              1.10397464E-06
    1077    (1,1077)              1.41993616E-06
    1078    (1,1078)              1.70013296E-06
    1079    (1,1079)              1.19189243E-06
    1080    (1,1080)              5.06812526E-07
    1081    (1,1081)              2.11409637E-06
    1082    (1,1082)              7.32154474E-07
    1083    (1,1083)              1.74819804E-06
    1084    (1,1084)              6.17235885E-07
    1085    (1,1085)              6.17068894E-07
    1086    (1,1086)              7.15685929E-07
    1087    (1,1087)              1.50225356E-06
    1088    (1,1088)              1.02581576E-06
    1089    (1,1089)              1.13673102E-06
    1090    (1,1090)              1.10680256E-06
    1091    (1,1091)              1.15575127E-06
    1092    (1,1092)              5.79800791E-07
    1093    (1,1093)              1.13743895E-06
    1094    (1,1094)              1.42192640E-06
    1095    (1,1095)              6.18410704E-07
    1096    (1,1096)              1.70106543E-06
    1097    (1,1097)              6.41523021E-07
    1098    (1,1098)              1.00943633E-06
    1099    (1,1099)              6.87219618E-07
    1100    (1,1100)              1.10921581E-06
    1101    (1,1101)              6.18748109E-07
    1102    (1,1102)              1.13755686E-06
    1103    (1,1103)              5.95766444E-07
    1104    (1,1104)              1.42178763E-06
    1105    (1,1105)              1.35992604E-06
    1106    (1,1106)              9.49024859E-06
    1107    (1,1107)              6.41523723E-07
    1108    (1,1108)              1.15554855E-06
    1109    (1,1109)              6.18845248E-07
    1110    (1,1110)              5.96830495E-07
    1111    (1,1111)              6.17946755E-07
    1112    (1,1112)              1.95218969E-03
    1113    (1,1113)              1.82943871E-06
    1114    (1,1114)              7.70478884E-04
    1115    (1,1115)              1.24459297E-06
    1116    (1,1116)              6.85907377E-06
    1117    (1,1117)              1.22196956E-06
    1118    (1,1118)              1.05334118E-04
    1119    (1,1119)              1.05188675E-06
    1120    (1,1120)              1.82824721E-06
    1121    (1,1121)              6.66842307E-07
    1122    (1,1122)              1.08731640E-06
    1123    (1,1123)              6.42259632E-07
    1124    (1,1124)              1.63533335E-06
    1125    (1,1125)              1.22165669E-06
    1126    (1,1126)              6.20818506E-07
    1127    (1,1127)              1.62385495E-06
    1128    (1,1128)              1.24366388E-06
    1129    (1,1129)              6.24086207E-07
    1130    (1,1130)              1.08735955E-06
    1131    (1,1131)              1.41551341E-06
    1132    (1,1132)              1.24284815E-06
    1133    (1,1133)              2.93677879E-02
    1134    (1,1134)              6.44898175E-07
    1135    (1,1135)              2.13285722E-03
    1136    (1,1136)              1.89303576E-02
    1137    (1,1137)              1.62575815E-02
    1138    (1,1138)              5.54930072E-03
    1139    (1,1139)              1.70851435E-03
    1140    (1,1140)              6.88058128E-02
    1141    (1,1141)              7.89510090E-04
    1142    (1,1142)              7.89906004E-04
    1143    (1,1143)              6.21535974E-02
    1144    (1,1144)              2.12856038E-03
    1145    (1,1145)              5.30359337E-03
    1146    (1,1146)              2.05352862E-03
    1147    (1,1147)              7.63450315E-04
    1148    (1,1148)              7.43164963E-03
    1149    (1,1149)              3.62327248E-02
    1150    (1,1150)              1.99575950E-03
    1151    (1,1151)              0.15542794    
    1152    (1,1152)              2.07609426E-03
    1153    (1,1153)              6.45180047E-07
    1154    (1,1154)              3.48433700E-03
    1155    (1,1155)              7.69174701E-04
    1156    (1,1156)              7.02673590E-03
    1157    (1,1157)              2.05642843E-03
    1158    (1,1158)              1.97054116E-03
    1159    (1,1159)              7.31369472E-04
    1160    (1,1160)              3.34009898E-02
    1161    (1,1161)              1.18050305E-02
    1162    (1,1162)              4.97495799E-03
    1163    (1,1163)              7.67801137E-04
    1164    (1,1164)              5.70586681E-03
    1165    (1,1165)              1.83335693E-03
    1166    (1,1166)              1.83231215E-03
    1167    (1,1167)              2.06127518E-03
    1168    (1,1168)              7.68770593E-04
    1169    (1,1169)              7.64625632E-04
    1170    (1,1170)              2.07061153E-03
    1171    (1,1171)              5.68584119E-03
    1172    (1,1172)              7.64015519E-04
    1173    (1,1173)              1.12351749E-03
    1174    (1,1174)              2.07559491E-03
    1175    (1,1175)              7.29572154E-04
    1176    (1,1176)              1.37612654E-03
    1177    (1,1177)              7.35360831E-04
    1178    (1,1178)              7.33300510E-04
    1179    (1,1179)              4.98049751E-04
    1180    (1,1180)              1.38892224E-03
    1181    (1,1181)              1.97934956E-03
    1182    (1,1182)              1.05901672E-03
    1183    (1,1183)              7.28098463E-04
    1184    (1,1184)              4.97845476E-04
    1185    (1,1185)              7.25853329E-04
    1186    (1,1186)              1.05462271E-03
    1187    (1,1187)              8.84695763E-04
    1188    (1,1188)              1.03718688E-03
    1189    (1,1189)              1.14039003E-03
    1190    (1,1190)              1.68141772E-03
    1191    (1,1191)              5.43201783E-03
    1192    (1,1192)              5.56492418E-03
    1193    (1,1193)              7.71456706E-04
    1194    (1,1194)              1.61849631E-03
    1195    (1,1195)              3.91184126E-03
    1196    (1,1196)              2.59258881E-03
    1197    (1,1197)              4.58533643E-04
    1198    (1,1198)              1.22169252E-06
    1199    (1,1199)              6.57138979E-07
    1200    (1,1200)              3.96224357E-03
    1201    (1,1201)              3.17432522E-03
    1202    (1,1202)              7.25163200E-04
    1203    (1,1203)              7.25141646E-04
    1204    (1,1204)              1.24284827E-03
    1205    (1,1205)              7.28132743E-04
    1206    (1,1206)              7.27568369E-04
    1207    (1,1207)              1.92986910E-03
    1208    (1,1208)              1.09038484E-03
    1209    (1,1209)              3.98567016E-04
    1210    (1,1210)              1.87573538E-03
    1211    (1,1211)              3.12335378E-04
    1212    (1,1212)              3.19982283E-04
    1213    (1,1213)              4.41305857E-04
    1214    (1,1214)              1.48354059E-03
    1215    (1,1215)              1.33846294E-03
    1216    (1,1216)              1.98481614E-03
    1217    (1,1217)              1.63312895E-03
    1218    (1,1218)              7.65677736E-04
    1219    (1,1219)              2.18184756E-03
    1220    (1,1220)              7.45968233E-04
    1221    (1,1221)              1.36757350E-03
    1222    (1,1222)              1.36920419E-03
    1223    (1,1223)              1.77370230E-03
    1224    (1,1224)              7.47560842E-04
    1225    (1,1225)              9.11490865E-03
    1226    (1,1226)              1.93004873E-03
    1227    (1,1227)              1.51680335E-03
    1228    (1,1228)              7.34023870E-04
    1229    (1,1229)              7.36028917E-04
    1230    (1,1230)              1.62431337E-03
    1231    (1,1231)              1.04067107E-03
    1232    (1,1232)              3.39139164E-03
    1233    (1,1233)              7.41283446E-04
    1234    (1,1234)              1.51569579E-03
    1235    (1,1235)              1.91794854E-03
    1236    (1,1236)              5.76061558E-04
    1237    (1,1237)              7.43540747E-04
    1238    (1,1238)              1.50062691E-03
    1239    (1,1239)              3.59961681E-03
    1240    (1,1240)              7.42951840E-04
    1241    (1,1241)              4.09918905E-04
    1242    (1,1242)              2.12266829E-03
    1243    (1,1243)              4.83055233E-04
    1244    (1,1244)              2.06551951E-03
    1245    (1,1245)              3.29803038E-04
    1246    (1,1246)              2.19241712E-03
    1247    (1,1247)              5.18293796E-04
    1248    (1,1248)              1.91244981E-03
    1249    (1,1249)              5.20557415E-04
    1250    (1,1250)              2.45921624E-04
    1251    (1,1251)              5.90158363E-04
    1252    (1,1252)              2.36719146E-04
    1253    (1,1253)              1.15925915E-03
    1254    (1,1254)              7.29448832E-04
    1255    (1,1255)              7.21366219E-04
    1256    (1,1256)              4.93379406E-04
    1257    (1,1257)              1.27047569E-03
    1258    (1,1258)              1.99931255E-03
    1259    (1,1259)              1.13370972E-03
    1260    (1,1260)              1.02609748E-03
    1261    (1,1261)              6.79827872E-04
    1262    (1,1262)              1.60280611E-03
    1263    (1,1263)              3.17301405E-04
    1264    (1,1264)              1.69949790E-03
    1265    (1,1265)              4.48061412E-04
    1266    (1,1266)              1.64424810E-03
    1267    (1,1267)              4.54024020E-04
    1268    (1,1268)              1.31747715E-03
    1269    (1,1269)              5.33740989E-04
    1270    (1,1270)              5.10552547E-04
    1271    (1,1271)              6.15720127E-04
    1272    (1,1272)              5.20741838E-04
    1273    (1,1273)              3.78992493E-03
    1274    (1,1274)              2.14682364E-03
    1275    (1,1275)              3.95367799E-03
    1276    (1,1276)              4.72304893E-04
    1277    (1,1277)              3.95082782E-04
    1278    (1,1278)              3.98881427E-03
    1279    (1,1279)              1.97914144E-03
    1280    (1,1280)              6.03640958E-04
    1281    (1,1281)              2.08647786E-03
    1282    (1,1282)              4.27851345E-03
    1283    (1,1283)              1.50565657E-03
    1284    (1,1284)              7.07442378E-04
    1285    (1,1285)              7.56814242E-04
    1286    (1,1286)              3.04239223E-04
    1287    (1,1287)              2.60200368E-04
    1288    (1,1288)              3.05520561E-04
    1289    (1,1289)              5.56761247E-04
    1290    (1,1290)              7.66879788E-04
    1291    (1,1291)              3.59994769E-03
    1292    (1,1292)              3.55925677E-03
    1293    (1,1293)              7.65375329E-04
    1294    (1,1294)              2.00451427E-03
    1295    (1,1295)              1.11942857E-03
    1296    (1,1296)              7.65103558E-04
    1297    (1,1297)              4.42657216E-04
    1298    (1,1298)              9.69533721E-04
    1299    (1,1299)              1.18301235E-03
    1300    (1,1300)              3.06299382E-04
    1301    (1,1301)              1.18507183E-03
    1302    (1,1302)              5.87760740E-04
    1303    (1,1303)              5.50325593E-04
    1304    (1,1304)              3.45163868E-03
    1305    (1,1305)              2.06538898E-03
    1306    (1,1306)              1.36028377E-03
    1307    (1,1307)              7.43043353E-02
    1308    (1,1308)              9.99853676E-04
    1309    (1,1309)              1.08158924E-03
    1310    (1,1310)              4.94825926E-03
    1311    (1,1311)              8.36743261E-03
    1312    (1,1312)              4.97258529E-04
    1313    (1,1313)              1.63148304E-03
    1314    (1,1314)              1.09330153E-03
    1315    (1,1315)              7.21024639E-04
    1316    (1,1316)              3.57683895E-04
    1317    (1,1317)              2.06307092E-03
    1318    (1,1318)              4.89107255E-04
    1319    (1,1319)              3.18773144E-03
    1320    (1,1320)              2.87874592E-03
    1321    (1,1321)              1.18973844E-03
    1322    (1,1322)              7.58336366E-04
    1323    (1,1323)              1.40944777E-03
    1324    (1,1324)              2.02738781E-03
    1325    (1,1325)              7.67526300E-04
    1326    (1,1326)              5.38814058E-03
    1327    (1,1327)              1.45917093E-03
    1328    (1,1328)              8.09382827E-03
    1329    (1,1329)              1.89109686E-03
    1330    (1,1330)              9.88152035E-04
    1331    (1,1331)              5.05623940E-04
    1332    (1,1332)              1.08048118E-03
    1333    (1,1333)              2.24031396E-03
    1334    (1,1334)              8.77735454E-04
    1335    (1,1335)              1.20907839E-03
    1336    (1,1336)              3.53546198E-04
    1337    (1,1337)              1.76650502E-03
    1338    (1,1338)              2.18100693E-03
    1339    (1,1339)              1.08105569E-03
    1340    (1,1340)              2.40573758E-03
    1341    (1,1341)              8.38357382E-04
    1342    (1,1342)              1.27971480E-03
    1343    (1,1343)              2.82698855E-04
    1344    (1,1344)              5.07531652E-04
    1345    (1,1345)              9.96750767E-04
    1346    (1,1346)              4.29759432E-04
    1347    (1,1347)              6.18427783E-04
    1348    (1,1348)              2.06761668E-04
    1349    (1,1349)              5.16683550E-04
    1350    (1,1350)              7.41803988E-04
    1351    (1,1351)              5.41420425E-04
    1352    (1,1352)              3.71011262E-04
    1353    (1,1353)              9.62037515E-04
    1354    (1,1354)              8.25324878E-04
    1355    (1,1355)              7.67173016E-04
    1356    (1,1356)              3.92112032E-04
    1357    (1,1357)              7.67589120E-04
    1358    (1,1358)              7.78569548E-04
    1359    (1,1359)              7.05834227E-04
    1360    (1,1360)              1.64538497E-03
    1361    (1,1361)              3.57487945E-04
    1362    (1,1362)              3.32443515E-03
    1363    (1,1363)              1.08992538E-03
    1364    (1,1364)              2.30516229E-03
    1365    (1,1365)              3.51228902E-03
    1366    (1,1366)              8.26210830E-04
    1367    (1,1367)              2.06998755E-04
    1368    (1,1368)              3.77390068E-03
    1369    (1,1369)              5.11388902E-03
    1370    (1,1370)              4.97755648E-03
    1371    (1,1371)              1.40843941E-03
    1372    (1,1372)              1.61932362E-02
    1373    (1,1373)              1.09130321E-03
    1374    (1,1374)              1.62071924E-06
    1375    (1,1375)              1.30956770E-06
    1376    (1,1376)              4.26672356E-03
    1377    (1,1377)              9.17898550E-07
    1378    (1,1378)              3.64747827E-04
    1379    (1,1379)              2.23155549E-04
    1380    (1,1380)              1.10626530E-04
    1381    (1,1381)              5.48810405E-05
    1382    (1,1382)              0.0000000     
    1383    (1,1383)              2.05921193E-04
    1384    (1,1384)              5.36891049E-05
    1385    (1,1385)              5.57969039E-05
    1386    (1,1386)              1.49578817E-06
    1387    (1,1387)              1.08583229E-05
    1388    (1,1388)              3.41215678E-04
    1389    (1,1389)              7.65446152E-07
    1390    (1,1390)              1.82269919E-06
    1391    (1,1391)              1.16466065E-06
    1392    (1,1392)              4.17274215E-04
    1393    (1,1393)              1.15394142E-06
    1394    (1,1394)              4.17543066E-04
    1395    (1,1395)              1.38325469E-04
    1396    (1,1396)              1.59210303E-06
    1397    (1,1397)              0.0000000     
    1398    (1,1398)              5.43643051E-05
    1399    (1,1399)              4.69600200E-05
    1400    (1,1400)              0.0000000     
    1401    (1,1401)              0.0000000     
    1402    (1,1402)              6.48241352E-05
    1403    (1,1403)              5.58681033E-05
    1404    (1,1404)              5.58073138E-05
    1405    (1,1405)              1.15327810E-06
    1406    (1,1406)              7.65568263E-07
    1407    (1,1407)              6.05323297E-07
    1408    (1,1408)              6.48283973E-07
    1409    (1,1409)              7.65034282E-07
    1410    (1,1410)              1.72379997E-06
    1411    (1,1411)              5.90613251E-05
    1412    (1,1412)              9.35589775E-05
    1413    (1,1413)              7.48498990E-07
    1414    (1,1414)              1.07213812E-03
    1415    (1,1415)              5.65871544E-07
    1416    (1,1416)              8.70071529E-05
    1417    (1,1417)              5.78648183E-05
    1418    (1,1418)              5.74443517E-04
    1419    (1,1419)              1.49516326E-06
    1420    (1,1420)              6.06376630E-07
    1421    (1,1421)              9.05892388E-07
    1422    (1,1422)              1.07100018E-06
    1423    (1,1423)              1.52435582E-04
    1424    (1,1424)              6.72780077E-07
    1425    (1,1425)              7.47894834E-07
    1426    (1,1426)              4.21840313E-04
    1427    (1,1427)              9.59673655E-07
    1428    (1,1428)              6.06551652E-07
    1429    (1,1429)              6.48531655E-07
    1430    (1,1430)              6.73014755E-07
    1431    (1,1431)              3.83202233E-05
    1432    (1,1432)              6.24714225E-07
    1433    (1,1433)              1.36528530E-06
    1434    (1,1434)              1.58207759E-06
    1435    (1,1435)              1.49667634E-06
    1436    (1,1436)              1.38946030E-04
    1437    (1,1437)              6.06584653E-07
    1438    (1,1438)              1.59234059E-06
    1439    (1,1439)              6.31778488E-07
    1440    (1,1440)              5.98668302E-06
    1441    (1,1441)              5.71206956E-07
    1442    (1,1442)              5.87861208E-07
    1443    (1,1443)              5.88066569E-07
    1444    (1,1444)              7.56585335E-06
    1445    (1,1445)              8.55464566E-07
    1446    (1,1446)              6.09154797E-07
    1447    (1,1447)              5.87860673E-07
    1448    (1,1448)              5.71126559E-07
    1449    (1,1449)              8.60206779E-05
    1450    (1,1450)              1.90833991E-04
    1451    (1,1451)              1.01286876E-06
    1452    (1,1452)              5.71134749E-07
    1453    (1,1453)              6.31559685E-07
    1454    (1,1454)              1.53695038E-04
[...]
   32159    (1,32159)             0.12379083    
   32160    (1,32160)             0.13241631    
   32161    (1,32161)             0.11857692    
   32162    (1,32162)             0.14397130    
   32163    (1,32163)             9.46154040E-02
   32164    (1,32164)             7.91424031E-02
   32165    (1,32165)             7.32603024E-02
   32166    (1,32166)             0.13759690    
   32167    (1,32167)             8.00643291E-02
   32168    (1,32168)             9.99360882E-02
   32169    (1,32169)             9.30101925E-02
   32170    (1,32170)             0.14357008    
   32171    (1,32171)             0.13105209    
   32172    (1,32172)             0.12239458    
   32173    (1,32173)             0.10713533    
   32174    (1,32174)             0.12469302    
   32175    (1,32175)             0.15503913    
   32176    (1,32176)             0.12984753    
   32177    (1,32177)             9.00342123E-02
   32178    (1,32178)             9.00715312E-02
   32179    (1,32179)             0.13275801    
   32180    (1,32180)             9.62235368E-02
   32181    (1,32181)             0.19794836    
   32182    (1,32182)             0.14944625    
   32183    (1,32183)             0.14649156    
   32184    (1,32184)             0.12259774    
   32185    (1,32185)             7.22311052E-02
   32186    (1,32186)             0.12466917    
   32187    (1,32187)             9.89036375E-02
   32188    (1,32188)             6.98181913E-02
   32189    (1,32189)             0.10564147    
   32190    (1,32190)             8.53398980E-02
   32191    (1,32191)             9.93454623E-02
   32192    (1,32192)             9.73757306E-02
   32193    (1,32193)             9.37197340E-02
   32194    (1,32194)             8.18838789E-02
   32195    (1,32195)             0.12007337    
   32196    (1,32196)             0.10385819    
   32197    (1,32197)             0.12398121    
   32198    (1,32198)             0.11140486    
   32199    (1,32199)             0.15053276    
   32200    (1,32200)             0.13503229    
   32201    (1,32201)             0.13374516    
   32202    (1,32202)             0.16635970    
   32203    (1,32203)             9.26885332E-02
   32204    (1,32204)             0.14708548    
   32205    (1,32205)             0.10688900    
   32206    (1,32206)             7.52877798E-02
   32207    (1,32207)             9.65959027E-02
   32208    (1,32208)             0.16658728    
   32209    (1,32209)             0.16388866    
   32210    (1,32210)             0.10974549    
   32211    (1,32211)             0.10159995    
   32212    (1,32212)             0.11404617    
   32213    (1,32213)             0.10985591    
   32214    (1,32214)             9.72092101E-02
   32215    (1,32215)             0.13151723    
   32216    (1,32216)             8.31124039E-02
   32217    (1,32217)             9.22902929E-02
   32218    (1,32218)             0.12361049    
   32219    (1,32219)             9.76573874E-02
   32220    (1,32220)             0.10698151    
   32221    (1,32221)             9.71428869E-02
   32222    (1,32222)             0.12559516    
   32223    (1,32223)             9.48566791E-02
   32224    (1,32224)             9.22815051E-02
   32225    (1,32225)             0.10949411    
   32226    (1,32226)             9.08116980E-02
   32227    (1,32227)             0.13983983    
   32228    (1,32228)             9.12648322E-02
   32229    (1,32229)             0.13111864    
   32230    (1,32230)             7.60913632E-02
   32231    (1,32231)             0.13690687    
   32232    (1,32232)             0.14758102    
   32233    (1,32233)             8.95658806E-02
   32234    (1,32234)             0.10369231    
   32235    (1,32235)             0.10409664    
   32236    (1,32236)             8.63717666E-02
   32237    (1,32237)             0.12038892    
   32238    (1,32238)             8.60511772E-02
   32239    (1,32239)             0.13423386    
   32240    (1,32240)             0.11667383    
   32241    (1,32241)             6.96446404E-02
   32242    (1,32242)             0.11090702    
   32243    (1,32243)             8.38252578E-02
   32244    (1,32244)             0.11219912    
   32245    (1,32245)             8.69121394E-02
   32246    (1,32246)             8.75886264E-02
   32247    (1,32247)             9.41596252E-02
   32248    (1,32248)             0.14113642    
   32249    (1,32249)             8.23576266E-02
   32250    (1,32250)             7.63852774E-02
   32251    (1,32251)             0.10786735    
   32252    (1,32252)             0.13282649    
   32253    (1,32253)             8.36069187E-02
   32254    (1,32254)             9.32504772E-02
   32255    (1,32255)             8.45871712E-02
   32256    (1,32256)             9.67487768E-02
   32257    (1,32257)             0.12622287    
   32258    (1,32258)             8.23719892E-02
   32259    (1,32259)             9.57649138E-02
   32260    (1,32260)             9.36626659E-02
   32261    (1,32261)             0.10352010    
   32262    (1,32262)             0.13960486    
   32263    (1,32263)             9.41183964E-02
   32264    (1,32264)             0.10562062    
   32265    (1,32265)             7.84628828E-02
   32266    (1,32266)             9.70483827E-02
   32267    (1,32267)             8.10825327E-02
   32268    (1,32268)             0.10806761    
   32269    (1,32269)             9.51177529E-02
   32270    (1,32270)             0.14691420    
   32271    (1,32271)             0.11894901    
   32272    (1,32272)             0.11521007    
   32273    (1,32273)             9.46098654E-02
   32274    (1,32274)             0.13370354    
   32275    (1,32275)             8.49668286E-02
   32276    (1,32276)             0.15532135    
   32277    (1,32277)             8.50924019E-02
   32278    (1,32278)             0.11370272    
   32279    (1,32279)             0.13176655    
   32280    (1,32280)             0.15665769    
   32281    (1,32281)             7.92805352E-02
   32282    (1,32282)             8.48882591E-02
   32283    (1,32283)             0.11355006    
   32284    (1,32284)             0.18975300    
   32285    (1,32285)             0.12053236    
   32286    (1,32286)             9.54827409E-02
   32287    (1,32287)             0.11051049    
   32288    (1,32288)             9.96822721E-02
   32289    (1,32289)             0.12459521    
   32290    (1,32290)             0.13262244    
   32291    (1,32291)             9.88662008E-02
   32292    (1,32292)             0.16313432    
   32293    (1,32293)             0.10452739    
   32294    (1,32294)             9.86434394E-02
   32295    (1,32295)             0.12985389    
   32296    (1,32296)             0.13891584    
   32297    (1,32297)             0.11224315    
   32298    (1,32298)             0.10532353    
   32299    (1,32299)             0.10569595    
   32300    (1,32300)             9.63970784E-02
   32301    (1,32301)             0.15477881    
   32302    (1,32302)             0.15671659    
   32303    (1,32303)             0.15106275    
   32304    (1,32304)             0.11220694    
   32305    (1,32305)             0.10811547    
   32306    (1,32306)             9.78156443E-02
   32307    (1,32307)             0.11602297    
   32308    (1,32308)             0.11260639    
   32309    (1,32309)             8.41115302E-02
   32310    (1,32310)             0.11259734    
   32311    (1,32311)             0.10467585    
   32312    (1,32312)             8.31012196E-02
   32313    (1,32313)             8.69399497E-02
   32314    (1,32314)             9.16419492E-02
   32315    (1,32315)             0.16841682    
   32316    (1,32316)             0.11801249    
   32317    (1,32317)             9.30064063E-02
   32318    (1,32318)             0.15816964    
   32319    (1,32319)             0.12844969    
   32320    (1,32320)             0.13161714    
   32321    (1,32321)             0.11969033    
   32322    (1,32322)             0.14352385    
   32323    (1,32323)             0.15663791    
   32324    (1,32324)             0.15625433    
   32325    (1,32325)             0.18729307    
   32326    (1,32326)             0.12007465    
   32327    (1,32327)             9.35241008E-02
   32328    (1,32328)             9.65284636E-02
   32329    (1,32329)             9.35704291E-02
   32330    (1,32330)             0.10963357    
   32331    (1,32331)             0.17292912    
   32332    (1,32332)             0.11787640    
   32333    (1,32333)             0.12489017    
   32334    (1,32334)             0.18451564    
   32335    (1,32335)             8.61216138E-02
   32336    (1,32336)             0.19167436    
   32337    (1,32337)             0.18316853    
   32338    (1,32338)             0.15564063    
   32339    (1,32339)             0.14660322    
   32340    (1,32340)             8.52512062E-02
   32341    (1,32341)             0.19613993    
   32342    (1,32342)             0.12444850    
   32343    (1,32343)             8.47061740E-02
   32344    (1,32344)             9.56676834E-02
   32345    (1,32345)             0.17320244    
   32346    (1,32346)             0.11466777    
   32347    (1,32347)             0.10315887    
   32348    (1,32348)             0.14020706    
   32349    (1,32349)             9.87756295E-02
   32350    (1,32350)             0.11178958    
   32351    (1,32351)             0.15548325    
   32352    (1,32352)             8.90419311E-02
   32353    (1,32353)             0.10568205    
   32354    (1,32354)             0.11289785    
   32355    (1,32355)             0.16580085    
   32356    (1,32356)             0.17517860    
   32357    (1,32357)             0.13763180    
   32358    (1,32358)             0.12069498    
   32359    (1,32359)             0.12313707    
   32360    (1,32360)             0.12950412    
   32361    (1,32361)             0.14197875    
   32362    (1,32362)             9.08413358E-02
   32363    (1,32363)             0.18101520    
   32364    (1,32364)             0.14655914    
   32365    (1,32365)             0.17801365    
   32366    (1,32366)             0.11619597    
   32367    (1,32367)             0.11732433    
   32368    (1,32368)             0.13117198    
   32369    (1,32369)             0.10481609    
   32370    (1,32370)             8.96263106E-02
   32371    (1,32371)             8.74935841E-02
   32372    (1,32372)             8.86452174E-02
   32373    (1,32373)             9.90345635E-02
   32374    (1,32374)             9.71205881E-02
   32375    (1,32375)             9.51453091E-02
   32376    (1,32376)             0.11812917    
   32377    (1,32377)             0.12027121    
   32378    (1,32378)             9.36983325E-02
   32379    (1,32379)             5.50974099E-02
   32380    (1,32380)             0.18229874    
   32381    (1,32381)             9.40768287E-02
   32382    (1,32382)             0.11494471    
   32383    (1,32383)             8.40825598E-02
   32384    (1,32384)             0.18244887    
   32385    (1,32385)             9.24373133E-02
   32386    (1,32386)             9.70544639E-02
   32387    (1,32387)             0.15183520    
   32388    (1,32388)             9.16457804E-02
   32389    (1,32389)             0.10627907    
   32390    (1,32390)             9.14422633E-02
   32391    (1,32391)             0.10680880    
   32392    (1,32392)             0.16219194    
   32393    (1,32393)             0.11655275    
   32394    (1,32394)             0.10170051    
   32395    (1,32395)             0.10837834    
   32396    (1,32396)             0.10522758    
   32397    (1,32397)             0.13438854    
   32398    (1,32398)             0.14573728    
   32399    (1,32399)             0.11544482    
   32400    (1,32400)             0.13586775    
   32401    (1,32401)             0.12699436    
   32402    (1,32402)             9.78217444E-02
   32403    (1,32403)             8.74016712E-02
   32404    (1,32404)             8.43442204E-02
   32405    (1,32405)             0.11343422    
   32406    (1,32406)             0.11848293    
   32407    (1,32407)             0.10918318    
   32408    (1,32408)             0.16635192    
   32409    (1,32409)             0.10374014    
   32410    (1,32410)             9.28158377E-02
   32411    (1,32411)             0.10804953    
   32412    (1,32412)             0.12017100    
   32413    (1,32413)             9.18067192E-02
   32414    (1,32414)             9.51485669E-02
   32415    (1,32415)             0.10310364    
   32416    (1,32416)             8.74896833E-02
   32417    (1,32417)             0.11025493    
   32418    (1,32418)             0.16881539    
   32419    (1,32419)             8.78016853E-02
   32420    (1,32420)             0.10870325    
   32421    (1,32421)             0.13862419    
   32422    (1,32422)             0.11147880    
   32423    (1,32423)             0.10949843    
   32424    (1,32424)             0.12961002    
   32425    (1,32425)             0.16281323    
   32426    (1,32426)             0.11166227    
   32427    (1,32427)             9.66562950E-02
   32428    (1,32428)             0.14075208    
   32429    (1,32429)             9.21637154E-02
   32430    (1,32430)             8.70440821E-02
   32431    (1,32431)             0.10704666    
   32432    (1,32432)             7.97833298E-02
   32433    (1,32433)             9.28859018E-02
   32434    (1,32434)             8.68834304E-02
   32435    (1,32435)             9.89861320E-02
   32436    (1,32436)             0.10122056    
   32437    (1,32437)             9.29609881E-02
   32438    (1,32438)             8.84289242E-02
   32439    (1,32439)             8.76437750E-02
   32440    (1,32440)             9.24276921E-02
   32441    (1,32441)             0.16193522    
   32442    (1,32442)             0.13569185    
   32443    (1,32443)             9.62067979E-02
   32444    (1,32444)             0.10222625    
   32445    (1,32445)             0.13505990    
   32446    (1,32446)             0.14454220    
   32447    (1,32447)             0.19028991    
   32448    (1,32448)             0.10983626    
   32449    (1,32449)             0.11829703    
   32450    (1,32450)             0.13560474    
   32451    (1,32451)             7.35776837E-02
   32452    (1,32452)             7.31898096E-02
   32453    (1,32453)             0.14148200    
   32454    (1,32454)             9.22253967E-02
   32455    (1,32455)             9.05008652E-02
   32456    (1,32456)             0.11633163    
   32457    (1,32457)             0.12266473    
   32458    (1,32458)             0.10939242    
   32459    (1,32459)             0.12864631    
   32460    (1,32460)             9.22077112E-02
   32461    (1,32461)             0.14048446    
   32462    (1,32462)             0.16292684    
   32463    (1,32463)             0.13582396    
   32464    (1,32464)             0.14690888    
   32465    (1,32465)             0.12066369    
   32466    (1,32466)             0.13985902    
   32467    (1,32467)             0.10528794    
   32468    (1,32468)             9.35408349E-02
   32469    (1,32469)             0.12616796    
   32470    (1,32470)             0.13448903    
   32471    (1,32471)             0.14844285    
   32472    (1,32472)             9.29011115E-02
   32473    (1,32473)             0.10008142    
   32474    (1,32474)             0.11227651    
   32475    (1,32475)             0.11534132    
   32476    (1,32476)             0.11219201    
   32477    (1,32477)             0.13452866    
   32478    (1,32478)             0.11564756    
   32479    (1,32479)             0.13989929    
   32480    (1,32480)             0.11381566    
   32481    (1,32481)             0.16661085    
   32482    (1,32482)             0.11713070    
   32483    (1,32483)             0.13323233    
   32484    (1,32484)             0.14917404    
   32485    (1,32485)             0.14899632    
   32486    (1,32486)             0.13097954    
   32487    (1,32487)             0.14274101    
   32488    (1,32488)             0.10456144    
   32489    (1,32489)             0.11521486    
   32490    (1,32490)             0.13222778    
   32491    (1,32491)             0.13777622    
   32492    (1,32492)             0.12679848    
   32493    (1,32493)             0.14837910    
   32494    (1,32494)             0.15913112    
   32495    (1,32495)             0.11637789    
   32496    (1,32496)             0.16746542    
   32497    (1,32497)             7.20362638E-02
   32498    (1,32498)             0.15017817    
   32499    (1,32499)             8.78466996E-02
   32500    (1,32500)             0.16625786    
   32501    (1,32501)             0.10447452    
   32502    (1,32502)             0.17673654    
   32503    (1,32503)             0.11370260    
   32504    (1,32504)             6.84451381E-02
   32505    (1,32505)             0.12158648    
   32506    (1,32506)             0.10607036    
   32507    (1,32507)             0.11928388    
   32508    (1,32508)             0.12345523    
   32509    (1,32509)             0.15563183    
   32510    (1,32510)             7.13255479E-02
   32511    (1,32511)             8.07105046E-02
   32512    (1,32512)             7.41009626E-02
   32513    (1,32513)             0.13544821    
   32514    (1,32514)             0.12388519    
   32515    (1,32515)             0.10547076    
 -----------------------------------------------




 HEAD WILL BE SAVED ON UNIT 1018 AT END OF TIME STEP    1, STRESS PERIOD    1


  VOLUME BUDGET FOR ENTIRE MODEL AT END OF TIME STEP    1, STRESS PERIOD   1
  ---------------------------------------------------------------------------------------------------

     CUMULATIVE VOLUME      L**3       RATES FOR THIS TIME STEP      L**3/T          PACKAGE NAME    
     ------------------                 ------------------------                     ----------------

           IN:                                      IN:
           ---                                      ---
                 WEL =           0.0000                   WEL =           0.0000     WELL_PACKAGE                     
                 RCH =         345.0672                   RCH =         345.0672     RCH                              
                 EVT =           0.0000                   EVT =           0.0000     EVT                              
                 CHD =           9.4142                   CHD =           9.4142     CHD                              

            TOTAL IN =         354.4814              TOTAL IN =         354.4814

          OUT:                                     OUT:
          ----                                     ----
                 WEL =          74.5251                   WEL =          74.5251     WELL_PACKAGE                     
                 RCH =           0.0000                   RCH =           0.0000     RCH                              
                 EVT =           4.1707                   EVT =           4.1707     EVT                              
                 CHD =         275.7952                   CHD =         275.7952     CHD                              

           TOTAL OUT =         354.4910             TOTAL OUT =         354.4910

            IN - OUT =      -9.6247E-03              IN - OUT =      -9.6247E-03

 PERCENT DISCREPANCY =          -0.00     PERCENT DISCREPANCY =          -0.00




         TIME SUMMARY AT END OF TIME STEP    1 IN STRESS PERIOD    1
                    SECONDS     MINUTES      HOURS       DAYS        YEARS
                    -----------------------------------------------------------
   TIME STEP LENGTH  1.0000     1.66667E-02 2.77778E-04 1.15741E-05 3.16881E-08
 STRESS PERIOD TIME  1.0000     1.66667E-02 2.77778E-04 1.15741E-05 3.16881E-08
         TOTAL TIME  1.0000     1.66667E-02 2.77778E-04 1.15741E-05 3.16881E-08


end timestep

