                                   MODFLOW 6
                U.S. GEOLOGICAL SURVEY MODULAR HYDROLOGIC MODEL
                          GROUNDWATER FLOW MODEL (GWF)
                            VERSION 6.6.0 12/20/2024

   MODFLOW 6 compiled Dec 31 2024 17:10:16 with Intel(R) Fortran Intel(R) 64
   Compiler Classic for applications running on Intel(R) 64, Version 2021.7.0
                             Build 20220726_000000

This software has been approved for release by the U.S. Geological 
Survey (USGS). Although the software has been subjected to rigorous 
review, the USGS reserves the right to update the software as needed 
pursuant to further analysis and review. No warranty, expressed or 
implied, is made by the USGS or the U.S. Government as to the 
functionality of the software and related material nor shall the 
fact of release constitute any such warranty. Furthermore, the 
software is released on condition that neither the USGS nor the U.S. 
Government shall be held liable for any damages resulting from its 
authorized or unauthorized use. Also refer to the USGS Water 
Resources Software User Rights Notice for complete use, copyright, 
and distribution information.


As a work of the United States Government, this USGS product is 
in the public domain within the United States. You can copy, 
modify, distribute, and perform the work, even for commercial 
purposes, all without asking permission. Additionally, USGS 
waives copyright and related rights in the work worldwide 
through CC0 1.0 Universal Public Domain Dedication 
(https://creativecommons.org/publicdomain/zero/1.0/).

The following GNU Lesser General Public License (LGPL) libraries
are used in this USGS product:

    SPARSKIT version 2.0
      ilut, luson, and qsplit 
      (https://www-users.cse.umn.edu/~saad/software/SPARSKIT/)

    RCM - Reverse Cuthill McKee Ordering
      (https://people.math.sc.edu/Burkardt/f_src/rcm/rcm.html)

    BLAS - Basic Linear Algebra Subprograms Level 1
      (https://people.math.sc.edu/Burkardt/f_src/blas1_d/blas1_d.html)

    SPARSEKIT - Sparse Matrix Utility Package
      amux, dperm, dvperm, rperm, and cperm
      (https://people.sc.fsu.edu/~jburkardt/f77_src/sparsekit/sparsekit.html)

The following BSD-3 License libraries are used in this USGS product:

    Modern Fortran DAG Library
      Copyright (c) 2018, Jacob Williams
      All rights reserved.
      (https://github.com/jacobwilliams/daglib)

MODFLOW 6 compiler options: /O2 /heap-arrays:0 /fpe:0 /traceback /nologo /fpp
/c /module:win64\mod_mf6\ /object:win64\obj_mf6\

System command used to initiate simulation:
C:\Users\sebas\AppData\Local\flopy\bin\mf6.exe

MODFLOW was compiled using uniform precision.

Real Variables
  KIND: 8
  TINY (smallest non-zero value):    2.225074-308
  HUGE (largest value):    1.797693+308
  PRECISION: 15
  SIZE IN BITS: 64

Integer Variables
  KIND: 4
  HUGE (largest value): 2147483647
  SIZE IN BITS: 32

Long Integer Variables
  KIND: 8
  HUGE (largest value): 9223372036854775807
  SIZE IN BITS: 64

Logical Variables
  KIND: 4
  SIZE IN BITS: 32
 
 NAMEFILE OPTIONS:
    FLOWS WILL BE SAVED TO BUDGET FILE SPECIFIED IN OUTPUT CONTROL
 END NAMEFILE OPTIONS:

 DISV -- VERTEX GRID DISCRETIZATION PACKAGE, VERSION 1 : 12/23/2015 - INPUT READ FROM MEMPATH: __INPUT__/TRIANGLE_CASEA/DISV                     


 Setting Discretization Options
 End Setting Discretization Options

 Setting Discretization Dimensions
    NLAY = 2
    NCPL = 4768
    NVERT = 3044
 End Setting Discretization Dimensions

 Setting Discretization Griddata
    TOP set from input file
    BOTM set from input file
 End Setting Discretization Griddata

 Discretization Vertex data loaded
 Discretization Cell2d data loaded

 NPF -- NODE PROPERTY FLOW PACKAGE, VERSION 1, 3/30/2015 INPUT READ FROM MEMPATH: __INPUT__/TRIANGLE_CASEA/NPF                      


 IC -- Initial Conditions Package, Version 8, 3/28/2015 input read from mempath: __INPUT__/TRIANGLE_CASEA/IC                       


 Setting NPF Options
    Cell-by-cell flow information will be saved to binary file whenever ICBCFL is not zero.
    Specific discharge will be calculated at cell centers and written to DATA-SPDIS in budget file when requested.
 End Setting NPF Options

 Setting NPF Griddata
    ICELLTYPE set from input file
    K set from input file
    K33 not provided.  Setting K33 = K.
    K22 not provided.  Setting K22 = K.
 End Setting NPF Griddata


 WEL   -- WEL PACKAGE, VERSION 8, 2/22/2014 INPUT READ FROM MEMPATH: __INPUT__/TRIANGLE_CASEA/WELL_PACKAGE             

 PROCESSING WEL BASE OPTIONS
    FLOWS WILL BE SAVED TO BUDGET FILE SPECIFIED IN OUTPUT CONTROL
 END OF WEL BASE OPTIONS

 PROCESSING WEL OPTIONS
 END OF WEL OPTIONS

 PROCESSING WEL BASE DIMENSIONS
    MAXBOUND =    6818
 END OF WEL BASE DIMENSIONS

 RCH   -- RCH PACKAGE, VERSION 8, 2/22/2014 INPUT READ FROM MEMPATH: __INPUT__/TRIANGLE_CASEA/RCH                      

 PROCESSING RCH BASE OPTIONS
    FLOWS WILL BE SAVED TO BUDGET FILE SPECIFIED IN OUTPUT CONTROL
    RCH FLOWS WILL BE PRINTED TO LISTING FILE.
 END OF RCH BASE OPTIONS

 PROCESSING RCH OPTIONS
    RECHARGE WILL BE APPLIED TO SPECIFIED CELL.
 END OF RCH OPTIONS

 PROCESSING RCH BASE DIMENSIONS
    MAXBOUND =    4768
 END OF RCH BASE DIMENSIONS

 EVT   -- EVT PACKAGE, VERSION 8, 2/22/2014 INPUT READ FROM MEMPATH: __INPUT__/TRIANGLE_CASEA/EVT                      

 PROCESSING EVT BASE OPTIONS
    FLOWS WILL BE SAVED TO BUDGET FILE SPECIFIED IN OUTPUT CONTROL
 END OF EVT BASE OPTIONS

 PROCESSING EVT OPTIONS
 END OF EVT OPTIONS

 PROCESSING EVT BASE DIMENSIONS
    MAXBOUND =    3735
 END OF EVT BASE DIMENSIONS

 PROCESSING EVT DIMENSIONS
    NSEG = 1
 END OF EVT DIMENSIONS

 CHD   -- CHD PACKAGE, VERSION 8, 2/22/2014 INPUT READ FROM MEMPATH: __INPUT__/TRIANGLE_CASEA/CHD                      

 PROCESSING CHD BASE OPTIONS
    FLOWS WILL BE SAVED TO BUDGET FILE SPECIFIED IN OUTPUT CONTROL
 END OF CHD BASE OPTIONS

 PROCESSING CHD BASE DIMENSIONS
    MAXBOUND =     848
 END OF CHD BASE DIMENSIONS
    STRT set from input file
    BINARY GRID INFORMATION WILL BE WRITTEN TO:
      UNIT NUMBER: 1016
      FILE NAME: triangle_caseA.disv.grb

 OPENED triangle_caseA.disv.grb
 FILE TYPE:DATA(BINARY)   UNIT 1016   STATUS:REPLACE             
 FORMAT:UNFORMATTED            ACCESS:STREAM              
 ACTION:READWRITE           

      THE LAST TIME STEP WILL BE PRINTED
      THE LAST TIME STEP WILL BE PRINTED
 # File generated by Flopy version 3.9.1 on 02/09/2026 at 21:32:11.

 PROCESSING OC OPTIONS

    BUDGET INFORMATION WILL BE WRITTEN TO:
      UNIT NUMBER: 1017
      FILE NAME: triangle_caseA.cbc

 OPENED triangle_caseA.cbc
 FILE TYPE:DATA(BINARY)   UNIT 1017   STATUS:REPLACE             
 FORMAT:UNFORMATTED            ACCESS:STREAM              
 ACTION:READWRITE           

    HEAD INFORMATION WILL BE WRITTEN TO:
      UNIT NUMBER: 1018
      FILE NAME: triangle_caseA.hds

 OPENED triangle_caseA.hds
 FILE TYPE:DATA(BINARY)   UNIT 1018   STATUS:REPLACE             
 FORMAT:UNFORMATTED            ACCESS:STREAM              
 ACTION:READWRITE           

 END OF OC OPTIONS

start timestep kper="1" kstp="1" mode="normal"


 BEGIN READING OUTPUT CONTROL FOR STRESS PERIOD 1
      THE LAST TIME STEP WILL BE SAVED
      THE LAST TIME STEP WILL BE SAVED
      THE LAST TIME STEP WILL BE PRINTED

 END READING OUTPUT CONTROL FOR STRESS PERIOD 1
 UBDSV1 SAVING     FLOW-JA-FACE ON UNIT   1017 AT TIME STEP      1, STRESS PERIOD      1
 UBDSV06 SAVING       DATA-SPDIS IN MODEL TRIANGLE_CASEA   PACKAGE NPF             CONNECTED TO MODEL TRIANGLE_CASEA   PACKAGE NPF              ON UNIT   1017 AT TIME STEP      1, STRESS PERIOD      1
 UBDSV06 SAVING              WEL IN MODEL TRIANGLE_CASEA   PACKAGE TRIANGLE_CASEA  CONNECTED TO MODEL TRIANGLE_CASEA   PACKAGE WELL_PACKAGE     ON UNIT   1017 AT TIME STEP      1, STRESS PERIOD      1
 UBDSV06 SAVING              RCH IN MODEL TRIANGLE_CASEA   PACKAGE TRIANGLE_CASEA  CONNECTED TO MODEL TRIANGLE_CASEA   PACKAGE RCH              ON UNIT   1017 AT TIME STEP      1, STRESS PERIOD      1
 UBDSV06 SAVING              EVT IN MODEL TRIANGLE_CASEA   PACKAGE TRIANGLE_CASEA  CONNECTED TO MODEL TRIANGLE_CASEA   PACKAGE EVT              ON UNIT   1017 AT TIME STEP      1, STRESS PERIOD      1
 UBDSV06 SAVING              CHD IN MODEL TRIANGLE_CASEA   PACKAGE TRIANGLE_CASEA  CONNECTED TO MODEL TRIANGLE_CASEA   PACKAGE CHD              ON UNIT   1017 AT TIME STEP      1, STRESS PERIOD      1

 RCH PACKAGE (RCH) FLOW RATES   PERIOD      1   STEP        1
 -----------------------------------------------
   NUMBER   CELLID                    RATE      
 -----------------------------------------------
     1      (1,1)                 4.10599198E-03
     2      (1,2)                 6.81234113E-06
     3      (1,3)                 6.34749789E-06
     4      (1,4)                 5.68915817E-06
     5      (1,5)                 6.08325898E-06
     6      (1,6)                 5.57554382E-06
     7      (1,7)                 4.36148501E-08
     8      (1,8)                 1.63602244E-02
     9      (1,9)                 7.82444393E-03
     10     (1,10)                4.78405744E-06
     11     (1,11)                5.03715980E-06
     12     (1,12)                4.98205965E-06
     13     (1,13)                1.67605287E-03
     14     (1,14)                1.50237590E-02
     15     (1,15)                1.81684059E-02
     16     (1,16)                5.24377067E-06
     17     (1,17)                2.50365686E-04
     18     (1,18)                6.25734963E-03
     19     (1,19)                1.25505996E-05
     20     (1,20)                4.11578903E-03
     21     (1,21)                3.73946713E-07
     22     (1,22)                7.15871522E-08
     23     (1,23)                7.99256231E-04
     24     (1,24)                6.46560443E-08
     25     (1,25)                4.00306172E-07
     26     (1,26)                8.30954944E-05
     27     (1,27)                1.08044918E-02
     28     (1,28)                5.50960274E-06
     29     (1,29)                4.98043734E-03
     30     (1,30)                0.11839348    
     31     (1,31)                1.01944957E-02
     32     (1,32)                2.18558194E-03
     33     (1,33)                2.13062071E-03
     34     (1,34)                2.43155990E-05
     35     (1,35)                8.56517864E-03
     36     (1,36)                6.55819571E-03
     37     (1,37)                1.23154476E-03
     38     (1,38)                1.38927457E-05
     39     (1,39)                1.07859332E-07
     40     (1,40)                6.05086673E-06
     41     (1,41)                2.63783033E-03
     42     (1,42)                6.72052326E-03
     43     (1,43)                1.30171419E-07
     44     (1,44)                4.96687950E-04
     45     (1,45)                1.87753541E-06
     46     (1,46)                1.98728922E-03
     47     (1,47)                2.53477328E-07
     48     (1,48)                8.86666128E-02
     49     (1,49)                3.46607230E-06
     50     (1,50)                5.71059042E-06
     51     (1,51)                6.32533122E-02
     52     (1,52)                5.88414864E-06
     53     (1,53)                1.70008360E-04
     54     (1,54)                5.30342725E-08
     55     (1,55)                3.61426287E-04
     56     (1,56)                9.67776728E-05
     57     (1,57)                4.09725849E-04
     58     (1,58)                1.31330198E-04
     59     (1,59)                1.03481854E-03
     60     (1,60)                1.12697154E-07
     61     (1,61)                1.06967098E-02
     62     (1,62)                1.24913433E-02
     63     (1,63)                8.58259401E-07
     64     (1,64)                4.11916729E-04
     65     (1,65)                1.60831034E-02
     66     (1,66)                4.09861488E-05
     67     (1,67)                8.51045894E-03
     68     (1,68)                3.88806911E-06
     69     (1,69)                1.88027107E-05
     70     (1,70)                2.31999904E-02
     71     (1,71)                1.42909739E-05
     72     (1,72)                2.38119863E-02
     73     (1,73)                6.77952256E-07
     74     (1,74)                1.28271360E-03
     75     (1,75)                2.22599085E-06
     76     (1,76)                1.46627818E-02
     77     (1,77)                1.15541707E-05
     78     (1,78)                3.80169464E-03
     79     (1,79)                3.03387584E-04
     80     (1,80)                5.35622752E-04
     81     (1,81)                1.62959395E-05
     82     (1,82)                3.83018709E-04
     83     (1,83)                1.34389388E-04
     84     (1,84)                0.0000000     
     85     (1,85)                5.62085454E-04
     86     (1,86)                1.26583282E-04
     87     (1,87)                5.02811031E-02
     88     (1,88)                2.97409569E-05
     89     (1,89)                7.46723288E-05
     90     (1,90)                8.92798060E-02
     91     (1,91)                3.00958790E-02
     92     (1,92)                3.31939748E-03
     93     (1,93)                3.73913244E-07
     94     (1,94)                0.0000000     
     95     (1,95)                1.93842502E-04
     96     (1,96)                8.03870549E-05
     97     (1,97)                1.36708685E-05
     98     (1,98)                4.60089671E-07
     99     (1,99)                1.27329282E-04
    100     (1,100)               6.36182214E-03
    101     (1,101)               4.51262026E-02
    102     (1,102)               1.56867627E-05
    103     (1,103)               7.40516783E-07
    104     (1,104)               2.06206738E-04
    105     (1,105)               6.55058358E-05
    106     (1,106)               1.24400135E-02
    107     (1,107)               0.0000000     
    108     (1,108)               0.0000000     
    109     (1,109)               1.83038387E-04
    110     (1,110)               0.0000000     
    111     (1,111)               4.99031163E-02
    112     (1,112)               3.59880186E-04
    113     (1,113)               4.15881814E-02
    114     (1,114)               2.53581146E-04
    115     (1,115)               6.46265830E-04
    116     (1,116)               0.0000000     
    117     (1,117)               0.0000000     
    118     (1,118)               6.76315152E-02
    119     (1,119)               0.0000000     
    120     (1,120)               5.54478367E-02
    121     (1,121)               0.0000000     
    122     (1,122)               2.30711703E-04
    123     (1,123)               0.0000000     
    124     (1,124)               4.04184450E-04
    125     (1,125)               0.0000000     
    126     (1,126)               0.0000000     
    127     (1,127)               2.86422556E-06
    128     (1,128)               8.93702197E-02
    129     (1,129)               0.0000000     
    130     (1,130)               2.01319490E-05
    131     (1,131)               0.0000000     
    132     (1,132)               3.28145342E-04
    133     (1,133)               0.0000000     
    134     (1,134)               6.31758137E-05
    135     (1,135)               3.34434876E-05
    136     (1,136)               0.0000000     
    137     (1,137)               2.53405208E-04
    138     (1,138)               0.0000000     
    139     (1,139)               0.0000000     
    140     (1,140)               3.69498000E-04
    141     (1,141)               0.0000000     
    142     (1,142)               3.01738170E-05
    143     (1,143)               0.0000000     
    144     (1,144)               9.73334525E-05
    145     (1,145)               1.05455544E-07
    146     (1,146)               4.29576139E-05
    147     (1,147)               4.94214293E-05
    148     (1,148)               5.16445119E-05
    149     (1,149)               0.0000000     
    150     (1,150)               0.0000000     
    151     (1,151)               7.26363157E-05
    152     (1,152)               6.78856540E-05
    153     (1,153)               2.05395483E-04
    154     (1,154)               1.89201844E-04
    155     (1,155)               3.76249513E-03
    156     (1,156)               2.76885275E-04
    157     (1,157)               6.47393918E-02
    158     (1,158)               1.83807590E-05
    159     (1,159)               8.18099941E-02
    160     (1,160)               6.41223121E-04
    161     (1,161)               1.06115243E-02
    162     (1,162)               0.0000000     
    163     (1,163)               3.08999387E-06
    164     (1,164)               0.10067433    
    165     (1,165)               9.02856275E-04
    166     (1,166)               8.93081106E-02
    167     (1,167)               3.12409748E-02
    168     (1,168)               6.31948124E-05
    169     (1,169)               5.95103501E-05
    170     (1,170)               2.12040204E-04
    171     (1,171)               4.20729908E-02
    172     (1,172)               9.62806827E-02
    173     (1,173)               0.0000000     
    174     (1,174)               2.90958429E-02
    175     (1,175)               8.48805775E-05
    176     (1,176)               6.56585001E-02
    177     (1,177)               1.68796734E-02
    178     (1,178)               1.80274200E-02
    179     (1,179)               0.0000000     
    180     (1,180)               6.65797257E-06
    181     (1,181)               3.27800611E-05
    182     (1,182)               6.89207328E-02
    183     (1,183)               3.36516060E-05
    184     (1,184)               8.98204316E-05
    185     (1,185)               0.10816169    
    186     (1,186)               1.70386174E-04
    187     (1,187)               1.84497441E-02
    188     (1,188)               2.79167977E-02
    189     (1,189)               0.14353742    
    190     (1,190)               7.99321207E-02
    191     (1,191)               2.13010390E-02
    192     (1,192)               0.0000000     
    193     (1,193)               2.68426948E-04
    194     (1,194)               0.10009829    
    195     (1,195)               1.41262222E-05
    196     (1,196)               7.36776797E-05
    197     (1,197)               3.42581526E-02
    198     (1,198)               3.16156923E-05
    199     (1,199)               4.07563577E-02
    200     (1,200)               4.30222661E-02
    201     (1,201)               1.28646483E-02
    202     (1,202)               0.15950974    
    203     (1,203)               5.95327286E-04
    204     (1,204)               9.91728884E-06
    205     (1,205)               2.38432076E-02
    206     (1,206)               1.38170286E-02
    207     (1,207)               3.46834003E-08
    208     (1,208)               5.91221203E-07
    209     (1,209)               6.47875620E-07
    210     (1,210)               5.17827208E-06
    211     (1,211)               1.52944785E-05
    212     (1,212)               7.15189488E-03
    213     (1,213)               0.0000000     
    214     (1,214)               1.17508368E-07
    215     (1,215)               3.02044864E-02
    216     (1,216)               1.47090668E-07
    217     (1,217)               5.90398149E-03
    218     (1,218)               5.68965627E-03
    219     (1,219)               6.94733361E-06
    220     (1,220)               9.75124736E-02
    221     (1,221)               1.37437575E-07
    222     (1,222)               6.83619819E-02
    223     (1,223)               1.86297292E-02
    224     (1,224)               3.77071429E-08
    225     (1,225)               1.24727735E-07
    226     (1,226)               1.67818004E-04
    227     (1,227)               6.55941018E-03
    228     (1,228)               2.14058547E-02
    229     (1,229)               3.27207214E-05
    230     (1,230)               7.23318184E-08
    231     (1,231)               3.04778091E-06
    232     (1,232)               5.90967494E-06
    233     (1,233)               0.0000000     
    234     (1,234)               0.13670525    
    235     (1,235)               3.27635961E-05
    236     (1,236)               4.78080122E-03
    237     (1,237)               5.78615937E-08
    238     (1,238)               2.10482239E-02
    239     (1,239)               6.14726521E-08
    240     (1,240)               9.92215724E-08
    241     (1,241)               9.25748198E-03
    242     (1,242)               8.75644887E-03
    243     (1,243)               4.75194540E-02
    244     (1,244)               5.57222626E-06
    245     (1,245)               3.27570758E-02
    246     (1,246)               4.84529072E-06
    247     (1,247)               4.95572534E-03
    248     (1,248)               4.36549982E-02
    249     (1,249)               1.02524937E-02
    250     (1,250)               4.68690370E-06
    251     (1,251)               0.15165146    
    252     (1,252)               4.63888447E-03
    253     (1,253)               5.72799582E-06
    254     (1,254)               2.70008973E-03
    255     (1,255)               4.08177613E-03
    256     (1,256)               6.48128874E-06
    257     (1,257)               7.63699336E-02
    258     (1,258)               0.0000000     
    259     (1,259)               1.20333285E-02
    260     (1,260)               4.05108683E-02
    261     (1,261)               1.42536117E-02
    262     (1,262)               8.53184875E-05
    263     (1,263)               2.07388313E-06
    264     (1,264)               9.21769408E-08
    265     (1,265)               1.12832257E-05
    266     (1,266)               5.49147084E-06
    267     (1,267)               3.59479439E-03
    268     (1,268)               2.25156365E-02
    269     (1,269)               2.70569567E-02
    270     (1,270)               3.74766386E-03
    271     (1,271)               9.24112303E-08
    272     (1,272)               0.0000000     
    273     (1,273)               2.05840245E-02
    274     (1,274)               2.98304763E-05
    275     (1,275)               6.56367964E-03
    276     (1,276)               3.53348674E-07
    277     (1,277)               2.37247093E-02
    278     (1,278)               4.76011618E-08
    279     (1,279)               2.02817287E-03
    280     (1,280)               2.10999988E-03
    281     (1,281)               3.77135374E-06
    282     (1,282)               7.19085137E-03
    283     (1,283)               4.12266050E-08
    284     (1,284)               7.12825253E-03
    285     (1,285)               6.77990628E-07
    286     (1,286)               6.24919026E-04
    287     (1,287)               3.33830635E-08
    288     (1,288)               5.42502370E-03
    289     (1,289)               3.08359371E-07
    290     (1,290)               1.56750502E-07
    291     (1,291)               1.56396850E-04
    292     (1,292)               1.38600474E-02
    293     (1,293)               9.13165005E-04
    294     (1,294)               4.51885537E-08
    295     (1,295)               2.68144835E-03
    296     (1,296)               9.86516641E-03
    297     (1,297)               3.23059965E-04
    298     (1,298)               1.35269055E-03
    299     (1,299)               6.99374702E-06
    300     (1,300)               7.50822558E-03
    301     (1,301)               2.04936890E-06
    302     (1,302)               7.23327210E-08
    303     (1,303)               4.32870436E-06
    304     (1,304)               1.11511359E-05
    305     (1,305)               3.61313887E-04
    306     (1,306)               8.49959079E-05
    307     (1,307)               4.13545911E-03
    308     (1,308)               6.74615617E-06
    309     (1,309)               8.63899557E-06
    310     (1,310)               1.91856264E-02
    311     (1,311)               7.75698549E-04
    312     (1,312)               3.59289542E-02
    313     (1,313)               1.29851872E-02
    314     (1,314)               7.38661308E-04
    315     (1,315)               1.59026448E-04
    316     (1,316)               6.63022449E-05
    317     (1,317)               0.0000000     
    318     (1,318)               3.48597185E-03
    319     (1,319)               0.0000000     
    320     (1,320)               2.96143640E-05
    321     (1,321)               1.21116304E-04
    322     (1,322)               1.24725213E-07
    323     (1,323)               9.72052352E-06
    324     (1,324)               5.42331058E-08
    325     (1,325)               1.19940571E-07
    326     (1,326)               1.57350464E-07
    327     (1,327)               4.64079964E-05
    328     (1,328)               4.51061221E-07
    329     (1,329)               2.25205634E-06
    330     (1,330)               3.20764181E-05
    331     (1,331)               3.99104550E-05
    332     (1,332)               4.50759281E-05
    333     (1,333)               2.55771288E-05
    334     (1,334)               2.45434302E-06
    335     (1,335)               4.94882868E-06
    336     (1,336)               5.37563883E-04
    337     (1,337)               9.71517128E-08
    338     (1,338)               1.18733664E-03
    339     (1,339)               3.95033039E-08
    340     (1,340)               1.93813453E-05
    341     (1,341)               4.99805453E-06
    342     (1,342)               8.49483585E-08
    343     (1,343)               0.0000000     
    344     (1,344)               1.03053027E-06
    345     (1,345)               3.32417429E-07
    346     (1,346)               8.40556103E-07
    347     (1,347)               1.54326332E-07
    348     (1,348)               4.99368806E-04
    349     (1,349)               3.19777912E-05
    350     (1,350)               4.91426895E-06
    351     (1,351)               5.65124683E-05
    352     (1,352)               1.73237303E-05
    353     (1,353)               5.28145997E-05
    354     (1,354)               1.67648030E-07
    355     (1,355)               2.11841461E-04
    356     (1,356)               5.83107173E-06
    357     (1,357)               1.06291868E-07
    358     (1,358)               3.46312746E-04
    359     (1,359)               0.0000000     
    360     (1,360)               0.0000000     
    361     (1,361)               7.35505479E-07
    362     (1,362)               2.37945807E-04
    363     (1,363)               9.15018733E-04
    364     (1,364)               5.84318437E-06
    365     (1,365)               2.25774438E-07
    366     (1,366)               1.02101488E-03
    367     (1,367)               2.05119502E-05
    368     (1,368)               2.57144470E-04
    369     (1,369)               0.0000000     
    370     (1,370)               8.61032940E-06
    371     (1,371)               2.03431844E-04
    372     (1,372)               1.13558806E-06
    373     (1,373)               0.0000000     
    374     (1,374)               1.51624471E-05
    375     (1,375)               7.86140052E-06
    376     (1,376)               7.89487614E-04
    377     (1,377)               2.49570821E-04
    378     (1,378)               1.55346319E-07
    379     (1,379)               8.14487554E-08
    380     (1,380)               1.33374585E-04
    381     (1,381)               0.0000000     
    382     (1,382)               0.0000000     
    383     (1,383)               3.31484763E-05
    384     (1,384)               1.01768106E-03
    385     (1,385)               1.62478907E-07
    386     (1,386)               3.10974670E-07
    387     (1,387)               3.30025084E-07
    388     (1,388)               2.46249246E-06
    389     (1,389)               1.87287593E-06
    390     (1,390)               3.36597953E-04
    391     (1,391)               3.65055894E-04
    392     (1,392)               6.12136056E-05
    393     (1,393)               2.93233741E-04
    394     (1,394)               1.60845779E-05
    395     (1,395)               6.40334059E-04
    396     (1,396)               0.0000000     
    397     (1,397)               0.0000000     
    398     (1,398)               0.0000000     
    399     (1,399)               0.0000000     
    400     (1,400)               7.28790100E-04
    401     (1,401)               0.0000000     
    402     (1,402)               3.85750379E-06
    403     (1,403)               1.01090100E-04
    404     (1,404)               4.30833811E-06
    405     (1,405)               3.94201900E-06
    406     (1,406)               0.0000000     
    407     (1,407)               1.42242327E-07
    408     (1,408)               3.01253132E-04
    409     (1,409)               4.42972129E-05
    410     (1,410)               3.99403990E-06
    411     (1,411)               7.80970488E-05
    412     (1,412)               5.05028587E-07
    413     (1,413)               4.90990496E-04
    414     (1,414)               4.64027647E-08
    415     (1,415)               1.20160907E-04
    416     (1,416)               1.27489765E-05
    417     (1,417)               5.64974178E-06
    418     (1,418)               4.97296318E-07
    419     (1,419)               3.71223453E-05
    420     (1,420)               4.71547008E-06
    421     (1,421)               4.07746942E-03
    422     (1,422)               5.37785606E-06
    423     (1,423)               2.11844580E-07
    424     (1,424)               1.63110293E-04
    425     (1,425)               1.65651934E-05
    426     (1,426)               1.22875264E-05
    427     (1,427)               4.91679225E-06
    428     (1,428)               1.26678813E-05
    429     (1,429)               1.70251195E-06
    430     (1,430)               2.47412820E-05
    431     (1,431)               8.99080822E-05
    432     (1,432)               5.91040837E-07
    433     (1,433)               3.57152055E-03
    434     (1,434)               5.62750677E-07
    435     (1,435)               1.15236625E-07
    436     (1,436)               1.57270002E-02
    437     (1,437)               1.39190242E-05
    438     (1,438)               3.98289674E-07
    439     (1,439)               2.71490702E-05
    440     (1,440)               8.68367985E-05
    441     (1,441)               3.35009816E-05
    442     (1,442)               5.62961017E-05
    443     (1,443)               5.49022076E-05
    444     (1,444)               5.81248333E-05
    445     (1,445)               9.82367212E-05
    446     (1,446)               9.21227375E-05
    447     (1,447)               1.66603741E-05
    448     (1,448)               7.10120474E-06
    449     (1,449)               4.63674707E-05
    450     (1,450)               6.33609775E-06
    451     (1,451)               6.33935927E-06
    452     (1,452)               5.18105857E-05
    453     (1,453)               2.45903790E-04
    454     (1,454)               1.98301304E-05
    455     (1,455)               1.44678195E-05
    456     (1,456)               5.44369936E-06
    457     (1,457)               1.12213849E-05
    458     (1,458)               3.73354636E-06
    459     (1,459)               3.59306897E-04
    460     (1,460)               1.51900839E-07
    461     (1,461)               6.28204754E-05
    462     (1,462)               4.39706256E-06
    463     (1,463)               1.12909268E-05
    464     (1,464)               7.77162061E-05
    465     (1,465)               1.12573067E-04
    466     (1,466)               7.64952878E-08
    467     (1,467)               1.13445251E-04
    468     (1,468)               1.36400818E-04
    469     (1,469)               4.84485944E-07
    470     (1,470)               6.53895365E-05
    471     (1,471)               4.42572978E-05
    472     (1,472)               1.20381387E-06
    473     (1,473)               0.0000000     
    474     (1,474)               1.34634049E-04
    475     (1,475)               3.31967916E-02
    476     (1,476)               1.13075654E-07
    477     (1,477)               1.27331740E-04
    478     (1,478)               1.93005489E-05
    479     (1,479)               3.47588671E-07
    480     (1,480)               2.92100378E-05
    481     (1,481)               2.34560048E-06
    482     (1,482)               1.42042472E-05
    483     (1,483)               5.28288694E-07
    484     (1,484)               8.73985660E-05
    485     (1,485)               6.32854677E-03
    486     (1,486)               3.96498048E-06
    487     (1,487)               3.35668207E-05
    488     (1,488)               4.94197343E-07
    489     (1,489)               3.37240083E-07
    490     (1,490)               4.37650149E-05
    491     (1,491)               2.86860775E-03
    492     (1,492)               4.88167303E-06
    493     (1,493)               2.77872503E-04
    494     (1,494)               4.51939336E-07
    495     (1,495)               1.91037142E-05
    496     (1,496)               2.22440991E-06
    497     (1,497)               1.57420145E-05
    498     (1,498)               1.68490571E-05
    499     (1,499)               2.68371067E-07
    500     (1,500)               1.45431636E-05
    501     (1,501)               4.20028035E-06
    502     (1,502)               1.55373395E-07
    503     (1,503)               1.20939891E-05
    504     (1,504)               5.62418531E-06
    505     (1,505)               1.64698179E-05
    506     (1,506)               5.77686315E-06
    507     (1,507)               1.83503698E-05
    508     (1,508)               2.74407948E-05
    509     (1,509)               0.0000000     
    510     (1,510)               5.23315400E-06
    511     (1,511)               1.67812784E-05
    512     (1,512)               1.32499139E-05
    513     (1,513)               5.18426384E-05
    514     (1,514)               5.89952631E-07
    515     (1,515)               2.04181062E-07
    516     (1,516)               0.0000000     
    517     (1,517)               0.0000000     
    518     (1,518)               0.0000000     
    519     (1,519)               6.51571797E-07
    520     (1,520)               6.38683018E-08
    521     (1,521)               0.0000000     
    522     (1,522)               1.21221130E-05
    523     (1,523)               1.62724198E-07
    524     (1,524)               0.0000000     
    525     (1,525)               0.0000000     
    526     (1,526)               0.0000000     
    527     (1,527)               0.0000000     
    528     (1,528)               5.62834937E-07
    529     (1,529)               3.62411947E-05
    530     (1,530)               2.81081844E-07
    531     (1,531)               0.0000000     
    532     (1,532)               7.63633083E-05
    533     (1,533)               1.01803637E-07
    534     (1,534)               6.50926560E-08
    535     (1,535)               4.04296844E-07
    536     (1,536)               4.73669102E-06
    537     (1,537)               6.41326789E-06
    538     (1,538)               6.55943837E-07
    539     (1,539)               8.66006741E-06
    540     (1,540)               3.43947472E-04
    541     (1,541)               3.39921486E-07
    542     (1,542)               3.48985539E-05
    543     (1,543)               0.0000000     
    544     (1,544)               0.0000000     
    545     (1,545)               1.10521192E-05
    546     (1,546)               5.80847399E-06
    547     (1,547)               5.25908630E-05
    548     (1,548)               5.06210329E-08
    549     (1,549)               0.0000000     
    550     (1,550)               1.60703220E-05
    551     (1,551)               1.00560793E-04
    552     (1,552)               1.70088667E-07
    553     (1,553)               2.42621499E-05
    554     (1,554)               0.0000000     
    555     (1,555)               4.62084877E-07
    556     (1,556)               5.55069293E-04
    557     (1,557)               1.37232129E-06
    558     (1,558)               1.44131108E-06
    559     (1,559)               4.13449047E-08
    560     (1,560)               1.59791062E-07
    561     (1,561)               1.42354187E-05
    562     (1,562)               1.17949532E-06
    563     (1,563)               2.23984835E-04
    564     (1,564)               4.31419940E-08
    565     (1,565)               6.37249133E-06
    566     (1,566)               2.68482009E-04
    567     (1,567)               0.0000000     
    568     (1,568)               1.68890445E-07
    569     (1,569)               3.77012285E-05
    570     (1,570)               1.01409049E-04
    571     (1,571)               5.62208899E-06
    572     (1,572)               4.00583858E-06
    573     (1,573)               1.53669715E-07
    574     (1,574)               4.90937356E-06
    575     (1,575)               9.33143359E-05
    576     (1,576)               2.04381218E-04
    577     (1,577)               3.64965916E-08
    578     (1,578)               4.37100544E-06
    579     (1,579)               1.92418981E-04
    580     (1,580)               1.52467575E-07
    581     (1,581)               3.53013707E-08
    582     (1,582)               0.0000000     
    583     (1,583)               4.26442522E-06
    584     (1,584)               0.0000000     
    585     (1,585)               0.0000000     
    586     (1,586)               0.0000000     
    587     (1,587)               0.0000000     
    588     (1,588)               2.81217528E-07
    589     (1,589)               2.85040286E-04
    590     (1,590)               7.49070187E-07
    591     (1,591)               0.0000000     
    592     (1,592)               6.30904323E-06
    593     (1,593)               5.10230381E-06
    594     (1,594)               5.57826636E-06
    595     (1,595)               0.0000000     
    596     (1,596)               2.13506703E-03
    597     (1,597)               1.54908812E-07
    598     (1,598)               5.55836745E-06
    599     (1,599)               4.11419052E-04
    600     (1,600)               6.27955277E-06
    601     (1,601)               1.58601696E-07
    602     (1,602)               1.43177826E-04
    603     (1,603)               7.46102744E-06
    604     (1,604)               5.11716497E-06
    605     (1,605)               3.38182104E-04
    606     (1,606)               9.93477719E-05
    607     (1,607)               1.36926902E-04
    608     (1,608)               4.52476260E-06
    609     (1,609)               9.78134095E-04
    610     (1,610)               2.04158667E-05
    611     (1,611)               1.63005051E-05
    612     (1,612)               3.38273105E-05
    613     (1,613)               5.86522733E-06
    614     (1,614)               3.09779217E-05
    615     (1,615)               3.00773054E-06
    616     (1,616)               1.34577035E-06
    617     (1,617)               5.46743459E-05
    618     (1,618)               1.52817960E-05
    619     (1,619)               5.95155543E-06
    620     (1,620)               1.13357345E-04
    621     (1,621)               3.39464128E-05
    622     (1,622)               2.03579128E-04
    623     (1,623)               9.04391782E-06
    624     (1,624)               5.29768923E-06
    625     (1,625)               1.40990862E-05
    626     (1,626)               5.31208729E-06
    627     (1,627)               2.20562992E-03
    628     (1,628)               1.71936382E-06
    629     (1,629)               7.93797481E-05
    630     (1,630)               5.12870736E-06
    631     (1,631)               0.0000000     
    632     (1,632)               1.72587993E-07
    633     (1,633)               5.68976584E-04
    634     (1,634)               4.64940792E-07
    635     (1,635)               2.22523451E-04
    636     (1,636)               1.37665062E-06
    637     (1,637)               1.14801473E-03
    638     (1,638)               1.19443165E-07
    639     (1,639)               2.76200503E-03
    640     (1,640)               0.0000000     
    641     (1,641)               3.09462525E-07
    642     (1,642)               3.40980801E-08
    643     (1,643)               6.26889719E-08
    644     (1,644)               8.68410946E-05
    645     (1,645)               7.74070340E-05
    646     (1,646)               4.43231784E-04
    647     (1,647)               3.19439505E-05
    648     (1,648)               3.42770932E-07
    649     (1,649)               2.40292068E-03
    650     (1,650)               6.75185752E-08
    651     (1,651)               5.60532702E-08
    652     (1,652)               2.54147637E-07
    653     (1,653)               5.18175183E-04
    654     (1,654)               3.33266513E-03
    655     (1,655)               1.03049751E-07
    656     (1,656)               1.88993607E-03
    657     (1,657)               1.48785926E-05
    658     (1,658)               4.41424049E-03
    659     (1,659)               4.19713309E-06
    660     (1,660)               1.46027249E-03
    661     (1,661)               2.13352356E-03
    662     (1,662)               2.61355606E-05
    663     (1,663)               4.06987536E-06
    664     (1,664)               1.60294726E-02
    665     (1,665)               4.71919933E-06
    666     (1,666)               5.70603814E-03
    667     (1,667)               6.01785927E-06
    668     (1,668)               7.20750600E-03
    669     (1,669)               5.55825491E-03
    670     (1,670)               4.45762673E-06
    671     (1,671)               1.65226778E-07
    672     (1,672)               2.09111064E-03
    673     (1,673)               1.22493933E-07
    674     (1,674)               3.18967693E-03
    675     (1,675)               1.08006483E-07
    676     (1,676)               9.64118026E-03
    677     (1,677)               1.99048875E-05
    678     (1,678)               1.29216776E-02
    679     (1,679)               4.30302628E-03
    680     (1,680)               7.37299955E-06
    681     (1,681)               3.95322840E-03
    682     (1,682)               2.01245382E-06
    683     (1,683)               6.87361538E-06
    684     (1,684)               1.18277831E-05
    685     (1,685)               6.15101861E-06
    686     (1,686)               4.88453768E-03
    687     (1,687)               5.96208295E-04
    688     (1,688)               6.14739069E-08
    689     (1,689)               1.15076871E-07
    690     (1,690)               1.53452810E-05
    691     (1,691)               5.19278449E-08
    692     (1,692)               4.47061351E-06
    693     (1,693)               7.84365791E-08
    694     (1,694)               1.55061825E-06
    695     (1,695)               1.55152812E-06
    696     (1,696)               2.28440339E-03
    697     (1,697)               4.68861889E-04
    698     (1,698)               6.54839474E-06
    699     (1,699)               1.43166024E-03
    700     (1,700)               1.04517370E-05
    701     (1,701)               3.00732705E-04
    702     (1,702)               8.86480806E-03
    703     (1,703)               5.36600189E-06
    704     (1,704)               1.00222887E-03
    705     (1,705)               1.41481482E-03
    706     (1,706)               9.66549141E-04
    707     (1,707)               3.76918254E-06
    708     (1,708)               1.22617648E-03
    709     (1,709)               1.69008167E-05
    710     (1,710)               6.50507619E-03
    711     (1,711)               4.24890241E-06
    712     (1,712)               1.25803012E-03
    713     (1,713)               2.71597132E-04
    714     (1,714)               9.82229935E-03
    715     (1,715)               1.49740346E-02
    716     (1,716)               6.28353480E-03
    717     (1,717)               8.59684041E-06
    718     (1,718)               3.47803929E-03
    719     (1,719)               3.72413388E-05
    720     (1,720)               1.04504351E-04
    721     (1,721)               1.28015093E-06
    722     (1,722)               2.25512520E-05
    723     (1,723)               0.12779975    
    724     (1,724)               1.34556837E-06
    725     (1,725)               3.21914166E-07
    726     (1,726)               8.84512029E-04
    727     (1,727)               1.45463531E-04
    728     (1,728)               6.14321153E-05
    729     (1,729)               0.0000000     
    730     (1,730)               0.0000000     
    731     (1,731)               1.74326406E-05
    732     (1,732)               3.63743815E-05
    733     (1,733)               0.0000000     
    734     (1,734)               4.61819445E-06
    735     (1,735)               3.89400579E-04
    736     (1,736)               4.12461614E-06
    737     (1,737)               2.29433879E-05
    738     (1,738)               0.0000000     
    739     (1,739)               1.01719378E-04
    740     (1,740)               2.76025947E-07
    741     (1,741)               2.36400406E-05
    742     (1,742)               2.81723270E-07
    743     (1,743)               2.16710955E-06
    744     (1,744)               6.62223452E-06
    745     (1,745)               1.21536834E-04
    746     (1,746)               3.63318300E-05
    747     (1,747)               2.28381181E-05
    748     (1,748)               1.68719676E-06
    749     (1,749)               9.79425151E-05
    750     (1,750)               4.32598997E-05
    751     (1,751)               7.75213080E-05
    752     (1,752)               0.0000000     
    753     (1,753)               9.71213965E-04
    754     (1,754)               8.99005062E-08
    755     (1,755)               6.19952018E-05
    756     (1,756)               1.72517731E-06
    757     (1,757)               3.47994590E-04
    758     (1,758)               4.08377091E-04
    759     (1,759)               1.41071218E-04
    760     (1,760)               6.30170131E-05
    761     (1,761)               0.0000000     
    762     (1,762)               2.15655047E-05
    763     (1,763)               3.96190057E-04
    764     (1,764)               8.23599514E-03
    765     (1,765)               2.95672580E-03
    766     (1,766)               9.95829822E-06
    767     (1,767)               5.04738232E-06
    768     (1,768)               8.41552015E-03
    769     (1,769)               0.0000000     
    770     (1,770)               7.99871634E-03
    771     (1,771)               1.05893656E-07
    772     (1,772)               0.0000000     
    773     (1,773)               4.93725380E-03
    774     (1,774)               3.39493868E-03
    775     (1,775)               1.23936363E-06
    776     (1,776)               5.19112222E-04
    777     (1,777)               3.46106975E-06
    778     (1,778)               0.0000000     
    779     (1,779)               8.80574906E-04
    780     (1,780)               8.05682678E-05
    781     (1,781)               0.0000000     
    782     (1,782)               1.50620313E-06
    783     (1,783)               3.16332898E-05
    784     (1,784)               0.0000000     
    785     (1,785)               5.71247256E-05
    786     (1,786)               3.50851912E-03
    787     (1,787)               8.73410783E-05
    788     (1,788)               5.68834374E-05
    789     (1,789)               0.0000000     
    790     (1,790)               3.61893674E-07
    791     (1,791)               1.02947032E-03
    792     (1,792)               4.58936484E-06
    793     (1,793)               6.12122313E-06
    794     (1,794)               6.75238984E-08
    795     (1,795)               2.30731631E-03
    796     (1,796)               5.61531423E-06
    797     (1,797)               2.82519342E-05
    798     (1,798)               6.03094676E-04
    799     (1,799)               1.17072602E-03
    800     (1,800)               1.70111883E-07
    801     (1,801)               9.34010583E-08
    802     (1,802)               1.27068763E-03
    803     (1,803)               1.52885413E-06
    804     (1,804)               3.01745745E-04
    805     (1,805)               1.71337274E-07
    806     (1,806)               3.85884655E-04
    807     (1,807)               7.55995608E-03
    808     (1,808)               9.89517037E-08
    809     (1,809)               8.96274755E-04
    810     (1,810)               3.86049968E-07
    811     (1,811)               1.53638152E-03
    812     (1,812)               8.50887007E-08
    813     (1,813)               5.89186297E-07
    814     (1,814)               6.67767793E-06
    815     (1,815)               2.00998643E-05
    816     (1,816)               0.0000000     
    817     (1,817)               4.85713063E-03
    818     (1,818)               6.43864483E-08
    819     (1,819)               8.45912495E-02
    820     (1,820)               1.85587027E-02
    821     (1,821)               7.82686251E-08
    822     (1,822)               1.58870980E-03
    823     (1,823)               5.07969756E-04
    824     (1,824)               1.68242278E-02
    825     (1,825)               6.36257940E-03
    826     (1,826)               2.97626555E-05
    827     (1,827)               2.78552310E-03
    828     (1,828)               2.34223718E-03
    829     (1,829)               1.64157725E-07
    830     (1,830)               1.42769373E-02
    831     (1,831)               6.95494671E-07
    832     (1,832)               8.41976095E-02
    833     (1,833)               1.16655691E-05
    834     (1,834)               0.0000000     
    835     (1,835)               4.98107504E-06
    836     (1,836)               7.42178254E-04
    837     (1,837)               4.84921879E-06
    838     (1,838)               4.52234920E-06
    839     (1,839)               4.46067883E-08
    840     (1,840)               7.12249461E-08
    841     (1,841)               0.10097475    
    842     (1,842)               7.68946492E-02
    843     (1,843)               2.83481939E-06
    844     (1,844)               1.60485665E-02
    845     (1,845)               3.96427924E-05
    846     (1,846)               1.90227278E-05
    847     (1,847)               1.40273041E-02
    848     (1,848)               1.17117720E-06
    849     (1,849)               2.53396827E-02
    850     (1,850)               1.26311782E-02
    851     (1,851)               4.93895561E-04
    852     (1,852)               4.45661010E-02
    853     (1,853)               1.98309603E-05
    854     (1,854)               7.55280951E-07
    855     (1,855)               9.81837222E-08
    856     (1,856)               0.14485990    
    857     (1,857)               2.82653181E-03
    858     (1,858)               3.75065438E-02
    859     (1,859)               9.32303387E-06
    860     (1,860)               2.20824401E-02
    861     (1,861)               7.96201955E-02
    862     (1,862)               8.54690808E-08
    863     (1,863)               8.05420677E-02
    864     (1,864)               9.31636066E-05
    865     (1,865)               0.12572081    
    866     (1,866)               0.0000000     
    867     (1,867)               1.45988342E-05
    868     (1,868)               0.0000000     
    869     (1,869)               9.17424656E-05
    870     (1,870)               9.52562982E-02
    871     (1,871)               0.0000000     
    872     (1,872)               0.12062940    
    873     (1,873)               1.29380639E-04
    874     (1,874)               5.03971128E-03
    875     (1,875)               5.54890975E-04
    876     (1,876)               1.89877478E-02
    877     (1,877)               5.42358604E-08
    878     (1,878)               0.0000000     
    879     (1,879)               4.20041234E-04
    880     (1,880)               0.0000000     
    881     (1,881)               1.59124076E-07
    882     (1,882)               1.53609724E-05
    883     (1,883)               0.0000000     
    884     (1,884)               5.87149831E-06
    885     (1,885)               5.54477922E-08
    886     (1,886)               1.84565555E-03
    887     (1,887)               5.30769883E-04
    888     (1,888)               6.75800982E-04
    889     (1,889)               1.04069111E-03
    890     (1,890)               1.66447892E-07
    891     (1,891)               0.0000000     
    892     (1,892)               1.31201117E-06
    893     (1,893)               1.58020068E-03
    894     (1,894)               4.77959137E-06
    895     (1,895)               3.08956731E-07
    896     (1,896)               0.0000000     
    897     (1,897)               0.0000000     
    898     (1,898)               0.0000000     
    899     (1,899)               4.40078196E-08
    900     (1,900)               3.96350807E-06
    901     (1,901)               0.0000000     
    902     (1,902)               0.0000000     
    903     (1,903)               5.90432236E-08
    904     (1,904)               0.0000000     
    905     (1,905)               3.76003425E-08
    906     (1,906)               1.96991831E-04
    907     (1,907)               3.89109697E-04
    908     (1,908)               4.43406056E-07
    909     (1,909)               0.0000000     
    910     (1,910)               1.23679889E-03
    911     (1,911)               0.0000000     
    912     (1,912)               0.0000000     
    913     (1,913)               1.10265504E-07
    914     (1,914)               4.94119967E-08
    915     (1,915)               0.0000000     
    916     (1,916)               2.38465068E-04
    917     (1,917)               5.75637572E-06
    918     (1,918)               3.41638228E-05
    919     (1,919)               1.51096445E-04
    920     (1,920)               6.88089334E-06
    921     (1,921)               1.53162023E-06
    922     (1,922)               2.86721771E-07
    923     (1,923)               2.79663495E-04
    924     (1,924)               0.0000000     
    925     (1,925)               3.11888515E-04
    926     (1,926)               0.0000000     
    927     (1,927)               9.09983412E-02
    928     (1,928)               3.10706866E-06
    929     (1,929)               2.68733092E-04
    930     (1,930)               0.0000000     
    931     (1,931)               8.22324791E-04
    932     (1,932)               6.79482444E-06
    933     (1,933)               1.75016110E-06
    934     (1,934)               5.04084463E-05
    935     (1,935)               4.13381944E-06
    936     (1,936)               1.07809225E-06
    937     (1,937)               8.98597142E-06
    938     (1,938)               2.87556514E-05
    939     (1,939)               5.68752370E-05
    940     (1,940)               7.37822407E-06
    941     (1,941)               9.06167701E-07
    942     (1,942)               1.14974713E-04
    943     (1,943)               6.36440844E-06
    944     (1,944)               1.24983963E-04
    945     (1,945)               3.98102832E-07
    946     (1,946)               0.0000000     
    947     (1,947)               5.22471685E-06
    948     (1,948)               2.32488424E-04
    949     (1,949)               2.37656741E-05
    950     (1,950)               2.22067819E-04
    951     (1,951)               1.49795948E-05
    952     (1,952)               6.20728191E-06
    953     (1,953)               5.20810664E-04
    954     (1,954)               4.70180291E-08
    955     (1,955)               2.63362105E-04
    956     (1,956)               1.05360145E-03
    957     (1,957)               5.46892917E-05
    958     (1,958)               1.03575636E-03
    959     (1,959)               5.93517465E-05
    960     (1,960)               2.04915493E-06
    961     (1,961)               0.0000000     
    962     (1,962)               0.0000000     
    963     (1,963)               3.57975246E-08
    964     (1,964)               3.96517724E-06
    965     (1,965)               0.0000000     
    966     (1,966)               2.81130919E-05
    967     (1,967)               9.58061547E-08
    968     (1,968)               1.35624439E-03
    969     (1,969)               3.52004877E-08
    970     (1,970)               3.06596895E-04
    971     (1,971)               0.0000000     
    972     (1,972)               5.23087881E-07
    973     (1,973)               1.08964384E-03
    974     (1,974)               5.66467818E-08
    975     (1,975)               0.0000000     
    976     (1,976)               2.64213291E-05
    977     (1,977)               3.98428932E-07
    978     (1,978)               0.0000000     
    979     (1,979)               0.0000000     
    980     (1,980)               0.0000000     
    981     (1,981)               0.0000000     
    982     (1,982)               1.39870670E-05
    983     (1,983)               0.0000000     
    984     (1,984)               6.72019141E-06
    985     (1,985)               8.81380155E-03
    986     (1,986)               3.70779939E-05
    987     (1,987)               1.33001881E-04
    988     (1,988)               2.02494750E-04
    989     (1,989)               3.22466823E-04
    990     (1,990)               4.16133868E-05
    991     (1,991)               3.96981370E-05
    992     (1,992)               1.21462840E-04
    993     (1,993)               0.0000000     
    994     (1,994)               7.84778473E-05
    995     (1,995)               7.74049250E-04
    996     (1,996)               1.50861032E-04
    997     (1,997)               1.94885386E-04
    998     (1,998)               6.39959351E-04
    999     (1,999)               1.29896446E-06
    1000    (1,1000)              8.26793179E-05
    1001    (1,1001)              6.71825233E-05
    1002    (1,1002)              1.26223454E-02
    1003    (1,1003)              7.62446563E-04
    1004    (1,1004)              2.77619916E-04
    1005    (1,1005)              2.36318656E-04
    1006    (1,1006)              3.66486127E-04
    1007    (1,1007)              8.21539422E-04
    1008    (1,1008)              4.64067764E-05
    1009    (1,1009)              8.91345665E-05
    1010    (1,1010)              2.46147510E-05
    1011    (1,1011)              3.71337234E-05
    1012    (1,1012)              6.69942644E-04
    1013    (1,1013)              1.53175112E-04
    1014    (1,1014)              1.00024165E-04
    1015    (1,1015)              4.16593094E-02
    1016    (1,1016)              5.58442871E-07
    1017    (1,1017)              4.11503646E-05
    1018    (1,1018)              4.69708729E-07
    1019    (1,1019)              4.80077628E-05
    1020    (1,1020)              1.00468854E-02
    1021    (1,1021)              3.26941414E-05
    1022    (1,1022)              6.05431563E-06
    1023    (1,1023)              1.57132865E-02
    1024    (1,1024)              3.20917806E-03
    1025    (1,1025)              5.31903892E-07
    1026    (1,1026)              2.41615695E-06
    1027    (1,1027)              2.85864243E-04
    1028    (1,1028)              1.99397482E-06
    1029    (1,1029)              8.98424553E-04
    1030    (1,1030)              6.56934707E-07
    1031    (1,1031)              1.88332552E-02
    1032    (1,1032)              1.51551300E-04
    1033    (1,1033)              1.60297376E-04
    1034    (1,1034)              7.55702832E-02
    1035    (1,1035)              0.0000000     
    1036    (1,1036)              1.98336090E-06
    1037    (1,1037)              1.35897774E-05
    1038    (1,1038)              0.0000000     
    1039    (1,1039)              0.0000000     
    1040    (1,1040)              0.0000000     
    1041    (1,1041)              3.93937191E-08
    1042    (1,1042)              3.70979272E-08
    1043    (1,1043)              0.0000000     
    1044    (1,1044)              1.80990014E-05
    1045    (1,1045)              6.02746017E-08
    1046    (1,1046)              1.15392410E-03
    1047    (1,1047)              3.04662740E-04
    1048    (1,1048)              9.33060176E-05
    1049    (1,1049)              5.11268113E-06
    1050    (1,1050)              6.10641688E-04
    1051    (1,1051)              9.80948739E-04
    1052    (1,1052)              1.34606421E-06
    1053    (1,1053)              0.0000000     
    1054    (1,1054)              6.43848726E-06
    1055    (1,1055)              0.0000000     
    1056    (1,1056)              2.83303211E-03
    1057    (1,1057)              8.85686246E-08
    1058    (1,1058)              1.07243301E-03
    1059    (1,1059)              1.21296539E-05
    1060    (1,1060)              5.18237891E-08
    1061    (1,1061)              2.56053004E-03
    1062    (1,1062)              1.67837649E-05
    1063    (1,1063)              2.27073739E-07
    1064    (1,1064)              5.33746976E-05
    1065    (1,1065)              9.55561910E-08
    1066    (1,1066)              4.05584190E-04
    1067    (1,1067)              1.57652801E-05
    1068    (1,1068)              5.64438067E-06
    1069    (1,1069)              1.67989812E-04
    1070    (1,1070)              8.81146248E-04
    1071    (1,1071)              4.62075245E-06
    1072    (1,1072)              8.95776343E-05
    1073    (1,1073)              0.0000000     
    1074    (1,1074)              3.87437147E-05
    1075    (1,1075)              3.55189701E-07
    1076    (1,1076)              4.71422897E-05
    1077    (1,1077)              9.15057892E-05
    1078    (1,1078)              8.26182114E-04
    1079    (1,1079)              2.61573644E-05
    1080    (1,1080)              2.60798166E-05
    1081    (1,1081)              5.11682515E-05
    1082    (1,1082)              5.27907766E-04
    1083    (1,1083)              5.73597245E-08
    1084    (1,1084)              4.56316901E-04
    1085    (1,1085)              2.40653703E-04
    1086    (1,1086)              5.24639362E-06
    1087    (1,1087)              2.84024947E-05
    1088    (1,1088)              1.00258545E-05
    1089    (1,1089)              2.97195218E-06
    1090    (1,1090)              4.77402697E-07
    1091    (1,1091)              4.40123918E-05
    1092    (1,1092)              1.52613674E-05
    1093    (1,1093)              0.0000000     
    1094    (1,1094)              6.07611402E-04
    1095    (1,1095)              3.34500145E-06
    1096    (1,1096)              7.54127915E-04
    1097    (1,1097)              4.30576748E-05
    1098    (1,1098)              4.86859343E-06
    1099    (1,1099)              8.29840094E-06
    1100    (1,1100)              4.33489224E-04
    1101    (1,1101)              1.94464004E-06
    1102    (1,1102)              1.72679694E-05
    1103    (1,1103)              8.58550906E-05
    1104    (1,1104)              2.02124641E-04
    1105    (1,1105)              9.93247966E-04
    1106    (1,1106)              7.81642441E-07
    1107    (1,1107)              1.39115615E-04
    1108    (1,1108)              2.19000336E-05
    1109    (1,1109)              4.37036194E-05
    1110    (1,1110)              1.42496096E-05
    1111    (1,1111)              1.18184746E-04
    1112    (1,1112)              0.0000000     
    1113    (1,1113)              1.05020263E-06
    1114    (1,1114)              5.49820277E-06
    1115    (1,1115)              7.06907335E-04
    1116    (1,1116)              1.79671003E-04
    1117    (1,1117)              2.27072742E-07
    1118    (1,1118)              1.11983291E-04
    1119    (1,1119)              2.34235365E-03
    1120    (1,1120)              3.55111449E-05
    1121    (1,1121)              1.16669231E-05
    1122    (1,1122)              4.65432997E-06
    1123    (1,1123)              3.24534972E-05
    1124    (1,1124)              2.10103367E-04
    1125    (1,1125)              1.48926973E-04
    1126    (1,1126)              0.0000000     
    1127    (1,1127)              2.07713859E-05
    1128    (1,1128)              3.74043491E-03
    1129    (1,1129)              2.98585007E-04
    1130    (1,1130)              8.85059371E-06
    1131    (1,1131)              1.75903057E-04
    1132    (1,1132)              7.69931952E-05
    1133    (1,1133)              5.88413651E-04
    1134    (1,1134)              8.59485235E-05
    1135    (1,1135)              5.48033992E-05
    1136    (1,1136)              3.93581050E-05
    1137    (1,1137)              3.48130188E-05
    1138    (1,1138)              1.50318257E-04
    1139    (1,1139)              3.89959449E-05
    1140    (1,1140)              4.92724550E-05
    1141    (1,1141)              5.72166370E-04
    1142    (1,1142)              9.21506727E-08
    1143    (1,1143)              1.07846207E-04
    1144    (1,1144)              7.38183431E-05
    1145    (1,1145)              3.82242878E-07
    1146    (1,1146)              4.49663126E-05
    1147    (1,1147)              5.10367776E-05
    1148    (1,1148)              4.43412325E-06
    1149    (1,1149)              4.40875051E-05
    1150    (1,1150)              1.01524775E-04
    1151    (1,1151)              1.19354971E-05
    1152    (1,1152)              3.35192449E-05
    1153    (1,1153)              0.0000000     
    1154    (1,1154)              1.79298871E-07
    1155    (1,1155)              8.60635642E-05
    1156    (1,1156)              0.0000000     
    1157    (1,1157)              6.91773481E-06
    1158    (1,1158)              1.50572217E-04
    1159    (1,1159)              2.41053851E-06
    1160    (1,1160)              5.25975662E-07
    1161    (1,1161)              3.05591109E-04
    1162    (1,1162)              0.0000000     
    1163    (1,1163)              7.72582835E-07
    1164    (1,1164)              5.83412417E-04
    1165    (1,1165)              1.01346039E-04
    1166    (1,1166)              2.52309039E-04
    1167    (1,1167)              1.67323741E-05
    1168    (1,1168)              1.89115308E-04
    1169    (1,1169)              1.77432892E-04
    1170    (1,1170)              5.01766024E-04
    1171    (1,1171)              0.0000000     
    1172    (1,1172)              4.27414970E-05
    1173    (1,1173)              4.07179631E-07
    1174    (1,1174)              2.57921970E-04
    1175    (1,1175)              9.38611411E-05
    1176    (1,1176)              1.57284702E-06
    1177    (1,1177)              1.53046382E-05
    1178    (1,1178)              1.22791310E-05
    1179    (1,1179)              4.76653728E-05
    1180    (1,1180)              2.84910263E-04
    1181    (1,1181)              1.61773538E-04
    1182    (1,1182)              1.22854016E-05
    1183    (1,1183)              7.84377004E-05
    1184    (1,1184)              1.32402967E-05
    1185    (1,1185)              3.02362293E-04
    1186    (1,1186)              1.31626886E-04
    1187    (1,1187)              8.74298401E-04
    1188    (1,1188)              6.46131643E-06
    1189    (1,1189)              1.61502810E-04
    1190    (1,1190)              3.52362342E-05
    1191    (1,1191)              0.0000000     
    1192    (1,1192)              2.25625509E-06
    1193    (1,1193)              1.10582699E-03
    1194    (1,1194)              1.39964415E-07
    1195    (1,1195)              4.44773330E-07
    1196    (1,1196)              8.75534274E-05
    1197    (1,1197)              5.70993157E-05
    1198    (1,1198)              4.67062531E-07
    1199    (1,1199)              2.76247679E-05
    1200    (1,1200)              1.17903166E-04
    1201    (1,1201)              5.11427963E-04
    1202    (1,1202)              1.12573818E-06
    1203    (1,1203)              1.00248264E-04
    1204    (1,1204)              0.0000000     
    1205    (1,1205)              5.64981187E-06
    1206    (1,1206)              1.68636803E-05
    1207    (1,1207)              1.26328772E-04
    1208    (1,1208)              2.08648662E-05
    1209    (1,1209)              1.71879283E-04
    1210    (1,1210)              1.49235657E-05
    1211    (1,1211)              8.16128840E-04
    1212    (1,1212)              6.11936497E-06
    1213    (1,1213)              6.11572548E-06
    1214    (1,1214)              2.96879314E-04
    1215    (1,1215)              6.64337907E-08
    1216    (1,1216)              0.0000000     
    1217    (1,1217)              5.90432940E-08
    1218    (1,1218)              5.06204257E-08
    1219    (1,1219)              4.28914127E-04
    1220    (1,1220)              4.82080715E-08
    1221    (1,1221)              1.20297369E-05
    1222    (1,1222)              4.33419104E-05
    1223    (1,1223)              1.19259919E-05
    1224    (1,1224)              4.60946869E-06
    1225    (1,1225)              1.37486883E-06
    1226    (1,1226)              5.42653507E-06
    1227    (1,1227)              1.70318110E-05
    1228    (1,1228)              2.41698529E-06
    1229    (1,1229)              0.0000000     
    1230    (1,1230)              8.11614025E-04
    1231    (1,1231)              0.0000000     
    1232    (1,1232)              4.39321906E-06
    1233    (1,1233)              2.67034919E-07
    1234    (1,1234)              1.07730637E-06
    1235    (1,1235)              1.51247111E-07
    1236    (1,1236)              3.25349275E-05
    1237    (1,1237)              0.0000000     
    1238    (1,1238)              1.03660145E-03
    1239    (1,1239)              1.26422284E-04
    1240    (1,1240)              2.71184594E-04
    1241    (1,1241)              6.09757462E-06
    1242    (1,1242)              0.0000000     
    1243    (1,1243)              2.57730313E-04
    1244    (1,1244)              2.90768490E-05
    1245    (1,1245)              2.53082447E-04
    1246    (1,1246)              4.28749963E-05
    1247    (1,1247)              3.81607458E-04
    1248    (1,1248)              6.51487162E-05
    1249    (1,1249)              0.0000000     
    1250    (1,1250)              0.0000000     
    1251    (1,1251)              3.39063000E-06
    1252    (1,1252)              1.29380154E-05
    1253    (1,1253)              0.0000000     
    1254    (1,1254)              5.47275435E-05
    1255    (1,1255)              1.34397358E-04
    1256    (1,1256)              2.45669562E-04
    1257    (1,1257)              0.0000000     
    1258    (1,1258)              1.10887621E-04
    1259    (1,1259)              0.0000000     
    1260    (1,1260)              1.56129586E-07
    1261    (1,1261)              1.30722577E-03
    1262    (1,1262)              3.01864265E-05
    1263    (1,1263)              2.99447049E-05
    1264    (1,1264)              0.0000000     
    1265    (1,1265)              0.0000000     
    1266    (1,1266)              4.60161685E-03
    1267    (1,1267)              3.96686355E-05
    1268    (1,1268)              2.00503297E-05
    1269    (1,1269)              0.0000000     
    1270    (1,1270)              2.07111479E-04
    1271    (1,1271)              1.58544143E-03
    1272    (1,1272)              9.61728902E-05
    1273    (1,1273)              4.09875055E-05
    1274    (1,1274)              3.72156058E-07
    1275    (1,1275)              1.50978812E-05
    1276    (1,1276)              5.16688513E-06
    1277    (1,1277)              0.0000000     
    1278    (1,1278)              3.36069423E-06
    1279    (1,1279)              3.07671648E-04
    1280    (1,1280)              1.11841809E-03
    1281    (1,1281)              1.63812481E-04
    1282    (1,1282)              0.0000000     
    1283    (1,1283)              1.11205872E-04
    1284    (1,1284)              7.67474432E-05
    1285    (1,1285)              3.90931796E-04
    1286    (1,1286)              2.26260481E-04
    1287    (1,1287)              0.0000000     
    1288    (1,1288)              0.0000000     
    1289    (1,1289)              1.03079368E-04
    1290    (1,1290)              4.45927288E-04
    1291    (1,1291)              1.80826113E-03
    1292    (1,1292)              0.0000000     
    1293    (1,1293)              0.0000000     
    1294    (1,1294)              0.0000000     
    1295    (1,1295)              0.0000000     
    1296    (1,1296)              5.83603295E-04
    1297    (1,1297)              2.10660382E-04
    1298    (1,1298)              2.17650361E-04
    1299    (1,1299)              0.0000000     
    1300    (1,1300)              1.09150934E-03
    1301    (1,1301)              3.52870858E-04
    1302    (1,1302)              0.0000000     
    1303    (1,1303)              0.0000000     
    1304    (1,1304)              0.0000000     
    1305    (1,1305)              1.28571687E-04
    1306    (1,1306)              0.0000000     
    1307    (1,1307)              2.50308631E-04
    1308    (1,1308)              5.99922209E-05
    1309    (1,1309)              0.0000000     
    1310    (1,1310)              0.0000000     
    1311    (1,1311)              3.05229786E-04
    1312    (1,1312)              1.26198420E-04
    1313    (1,1313)              6.00011781E-05
    1314    (1,1314)              0.0000000     
    1315    (1,1315)              0.0000000     
    1316    (1,1316)              2.22302753E-02
    1317    (1,1317)              1.52352822E-04
    1318    (1,1318)              7.67246527E-03
    1319    (1,1319)              0.0000000     
    1320    (1,1320)              4.09528736E-04
    1321    (1,1321)              4.92616306E-04
    1322    (1,1322)              2.96429432E-04
    1323    (1,1323)              1.03839759E-04
    1324    (1,1324)              0.0000000     
    1325    (1,1325)              5.94349057E-04
    1326    (1,1326)              1.20228957E-03
    1327    (1,1327)              0.0000000     
    1328    (1,1328)              0.0000000     
    1329    (1,1329)              5.96892939E-03
    1330    (1,1330)              0.0000000     
    1331    (1,1331)              0.0000000     
    1332    (1,1332)              0.0000000     
    1333    (1,1333)              0.0000000     
    1334    (1,1334)              1.46732694E-04
    1335    (1,1335)              0.0000000     
    1336    (1,1336)              6.88084045E-04
    1337    (1,1337)              2.03627148E-03
    1338    (1,1338)              1.26227314E-04
    1339    (1,1339)              1.92595600E-03
    1340    (1,1340)              7.68070183E-04
    1341    (1,1341)              2.53031953E-04
    1342    (1,1342)              1.03670698E-03
    1343    (1,1343)              9.61919917E-04
    1344    (1,1344)              1.59205400E-04
    1345    (1,1345)              1.87990194E-04
    1346    (1,1346)              4.38277765E-03
    1347    (1,1347)              6.78460216E-04
    1348    (1,1348)              3.25246128E-04
    1349    (1,1349)              1.00451200E-03
    1350    (1,1350)              2.33842282E-03
    1351    (1,1351)              9.71385353E-04
    1352    (1,1352)              2.63151275E-03
    1353    (1,1353)              4.13560137E-04
    1354    (1,1354)              0.0000000     
    1355    (1,1355)              2.18192887E-03
    1356    (1,1356)              0.0000000     
    1357    (1,1357)              3.57173351E-04
    1358    (1,1358)              2.43577989E-04
    1359    (1,1359)              0.0000000     
    1360    (1,1360)              0.0000000     
    1361    (1,1361)              0.0000000     
    1362    (1,1362)              2.05867005E-04
    1363    (1,1363)              0.0000000     
    1364    (1,1364)              5.26734010E-04
    1365    (1,1365)              0.0000000     
    1366    (1,1366)              8.16549528E-04
    1367    (1,1367)              0.0000000     
    1368    (1,1368)              2.75499593E-04
    1369    (1,1369)              6.24032754E-04
    1370    (1,1370)              4.21944954E-04
    1371    (1,1371)              8.05305346E-04
    1372    (1,1372)              7.38145681E-04
    1373    (1,1373)              0.0000000     
    1374    (1,1374)              0.0000000     
    1375    (1,1375)              0.0000000     
    1376    (1,1376)              3.07746633E-04
    1377    (1,1377)              0.0000000     
    1378    (1,1378)              0.0000000     
    1379    (1,1379)              3.30666765E-04
    1380    (1,1380)              8.80471326E-04
    1381    (1,1381)              0.0000000     
    1382    (1,1382)              0.0000000     
    1383    (1,1383)              3.61757842E-04
    1384    (1,1384)              1.76994372E-04
    1385    (1,1385)              1.85321021E-04
    1386    (1,1386)              2.94844372E-04
    1387    (1,1387)              5.79716341E-04
    1388    (1,1388)              0.0000000     
    1389    (1,1389)              1.10247017E-03
    1390    (1,1390)              5.32451117E-04
    1391    (1,1391)              0.0000000     
    1392    (1,1392)              0.0000000     
    1393    (1,1393)              0.0000000     
    1394    (1,1394)              0.0000000     
    1395    (1,1395)              0.0000000     
    1396    (1,1396)              8.46029357E-02
    1397    (1,1397)              0.0000000     
    1398    (1,1398)              0.0000000     
    1399    (1,1399)              0.0000000     
    1400    (1,1400)              0.0000000     
    1401    (1,1401)              0.0000000     
    1402    (1,1402)              0.0000000     
    1403    (1,1403)              2.96253844E-03
    1404    (1,1404)              6.24653308E-04
    1405    (1,1405)              0.0000000     
    1406    (1,1406)              4.00554171E-04
    1407    (1,1407)              4.24718514E-04
    1408    (1,1408)              3.53074159E-04
    1409    (1,1409)              0.0000000     
    1410    (1,1410)              0.0000000     
    1411    (1,1411)              1.37673471E-03
    1412    (1,1412)              0.0000000     
    1413    (1,1413)              0.0000000     
    1414    (1,1414)              0.0000000     
    1415    (1,1415)              0.0000000     
    1416    (1,1416)              0.0000000     
    1417    (1,1417)              2.86759447E-04
    1418    (1,1418)              0.0000000     
    1419    (1,1419)              0.0000000     
    1420    (1,1420)              0.0000000     
    1421    (1,1421)              2.84781573E-04
    1422    (1,1422)              1.84099210E-04
    1423    (1,1423)              2.77247961E-04
    1424    (1,1424)              2.05708118E-04
    1425    (1,1425)              3.68085595E-04
    1426    (1,1426)              0.0000000     
    1427    (1,1427)              2.73973609E-02
    1428    (1,1428)              0.0000000     
    1429    (1,1429)              0.0000000     
    1430    (1,1430)              3.29216796E-03
    1431    (1,1431)              0.0000000     
    1432    (1,1432)              0.0000000     
    1433    (1,1433)              5.20194877E-04
    1434    (1,1434)              0.0000000     
    1435    (1,1435)              7.31092190E-04
    1436    (1,1436)              4.04718687E-04
    1437    (1,1437)              0.0000000     
    1438    (1,1438)              0.0000000     
    1439    (1,1439)              0.0000000     
    1440    (1,1440)              0.0000000     
    1441    (1,1441)              0.0000000     
    1442    (1,1442)              0.0000000     
    1443    (1,1443)              5.02123490E-04
    1444    (1,1444)              8.22324542E-04
    1445    (1,1445)              3.85782663E-03
    1446    (1,1446)              9.20782457E-02
    1447    (1,1447)              0.0000000     
    1448    (1,1448)              1.37917290E-02
    1449    (1,1449)              0.0000000     
    1450    (1,1450)              6.64059527E-04
    1451    (1,1451)              0.0000000     
    1452    (1,1452)              7.21961454E-04
    1453    (1,1453)              0.0000000     
    1454    (1,1454)              0.0000000     
[...]
    4412    (1,4412)              9.40772380E-02
    4413    (1,4413)              0.13365212    
    4414    (1,4414)              0.11190448    
    4415    (1,4415)              8.02896455E-02
    4416    (1,4416)              0.12230023    
    4417    (1,4417)              7.20763362E-02
    4418    (1,4418)              0.11102352    
    4419    (1,4419)              7.84968780E-02
    4420    (1,4420)              9.38711390E-02
    4421    (1,4421)              0.11285109    
    4422    (1,4422)              0.11956377    
    4423    (1,4423)              8.56445066E-02
    4424    (1,4424)              0.10913278    
    4425    (1,4425)              7.57091035E-02
    4426    (1,4426)              9.57455250E-02
    4427    (1,4427)              7.28018240E-02
    4428    (1,4428)              0.12350569    
    4429    (1,4429)              9.01125360E-02
    4430    (1,4430)              7.41553346E-02
    4431    (1,4431)              5.76614014E-02
    4432    (1,4432)              7.43158648E-02
    4433    (1,4433)              8.54058050E-02
    4434    (1,4434)              8.77839354E-02
    4435    (1,4435)              8.83496752E-02
    4436    (1,4436)              7.73892281E-02
    4437    (1,4437)              8.62958902E-02
    4438    (1,4438)              0.11880136    
    4439    (1,4439)              0.17721561    
    4440    (1,4440)              6.78242512E-02
    4441    (1,4441)              9.72656314E-02
    4442    (1,4442)              0.13699614    
    4443    (1,4443)              8.16272206E-02
    4444    (1,4444)              0.11616029    
    4445    (1,4445)              7.92973235E-02
    4446    (1,4446)              0.11511860    
    4447    (1,4447)              9.68754236E-02
    4448    (1,4448)              0.14342269    
    4449    (1,4449)              7.42225953E-02
    4450    (1,4450)              9.75983906E-02
    4451    (1,4451)              0.12096318    
    4452    (1,4452)              7.56267276E-02
    4453    (1,4453)              0.12094562    
    4454    (1,4454)              0.14712189    
    4455    (1,4455)              0.13651272    
    4456    (1,4456)              0.11498351    
    4457    (1,4457)              6.32552621E-02
    4458    (1,4458)              9.66247873E-02
    4459    (1,4459)              0.10907880    
    4460    (1,4460)              7.32978363E-02
    4461    (1,4461)              8.45466301E-02
    4462    (1,4462)              0.12375777    
    4463    (1,4463)              0.11027207    
    4464    (1,4464)              8.27474983E-02
    4465    (1,4465)              9.38181848E-02
    4466    (1,4466)              5.77627318E-02
    4467    (1,4467)              8.11243538E-02
    4468    (1,4468)              7.56534455E-02
    4469    (1,4469)              6.64149123E-02
    4470    (1,4470)              0.14594441    
    4471    (1,4471)              0.13348073    
    4472    (1,4472)              8.20104415E-02
    4473    (1,4473)              8.26626376E-02
    4474    (1,4474)              8.24452762E-02
    4475    (1,4475)              0.11921187    
    4476    (1,4476)              9.96513062E-02
    4477    (1,4477)              9.83507529E-02
    4478    (1,4478)              9.34211077E-02
    4479    (1,4479)              8.85679305E-02
    4480    (1,4480)              0.13622905    
    4481    (1,4481)              0.12473510    
    4482    (1,4482)              0.12149578    
    4483    (1,4483)              9.24416365E-02
    4484    (1,4484)              8.22880873E-02
    4485    (1,4485)              8.32171860E-02
    4486    (1,4486)              8.42999691E-02
    4487    (1,4487)              0.10075365    
    4488    (1,4488)              0.10330177    
    4489    (1,4489)              8.69270939E-02
    4490    (1,4490)              9.85313707E-02
    4491    (1,4491)              0.17254457    
    4492    (1,4492)              9.06383936E-02
    4493    (1,4493)              0.11412290    
    4494    (1,4494)              0.12050289    
    4495    (1,4495)              8.95725015E-02
    4496    (1,4496)              0.10185257    
    4497    (1,4497)              0.13858711    
    4498    (1,4498)              0.11712590    
    4499    (1,4499)              0.13013386    
    4500    (1,4500)              0.12049014    
    4501    (1,4501)              0.12002026    
    4502    (1,4502)              0.15593602    
    4503    (1,4503)              0.18853697    
    4504    (1,4504)              0.14716539    
    4505    (1,4505)              9.52857906E-02
    4506    (1,4506)              0.11937164    
    4507    (1,4507)              0.11489586    
    4508    (1,4508)              0.12268785    
    4509    (1,4509)              0.10772224    
    4510    (1,4510)              0.11084824    
    4511    (1,4511)              0.15369973    
    4512    (1,4512)              0.12305838    
    4513    (1,4513)              9.40275853E-02
    4514    (1,4514)              0.10949942    
    4515    (1,4515)              0.11608624    
    4516    (1,4516)              9.03679445E-02
    4517    (1,4517)              0.14482150    
    4518    (1,4518)              0.10386146    
    4519    (1,4519)              9.70967198E-02
    4520    (1,4520)              8.56154166E-02
    4521    (1,4521)              0.14028172    
    4522    (1,4522)              0.11203048    
    4523    (1,4523)              0.10967758    
    4524    (1,4524)              0.13234421    
    4525    (1,4525)              0.11276545    
    4526    (1,4526)              0.10192746    
    4527    (1,4527)              0.12177786    
    4528    (1,4528)              0.15094293    
    4529    (1,4529)              0.12822447    
    4530    (1,4530)              0.10026020    
    4531    (1,4531)              0.11077080    
    4532    (1,4532)              0.14558105    
    4533    (1,4533)              0.10681512    
    4534    (1,4534)              0.12809727    
    4535    (1,4535)              9.57195625E-02
    4536    (1,4536)              9.91822755E-02
    4537    (1,4537)              9.76568426E-02
    4538    (1,4538)              9.11510490E-02
    4539    (1,4539)              7.41290918E-02
    4540    (1,4540)              8.85346546E-02
    4541    (1,4541)              0.10682524    
    4542    (1,4542)              0.13374899    
    4543    (1,4543)              0.11395218    
    4544    (1,4544)              0.12426419    
    4545    (1,4545)              0.13590652    
    4546    (1,4546)              0.15258664    
    4547    (1,4547)              0.11366012    
    4548    (1,4548)              0.13414440    
    4549    (1,4549)              7.40684244E-02
    4550    (1,4550)              8.54209834E-02
    4551    (1,4551)              0.11561435    
    4552    (1,4552)              0.13682958    
    4553    (1,4553)              8.35678686E-02
    4554    (1,4554)              8.16752974E-02
    4555    (1,4555)              8.45131130E-02
    4556    (1,4556)              8.30606234E-02
    4557    (1,4557)              0.14575064    
    4558    (1,4558)              0.17224474    
    4559    (1,4559)              9.39873084E-02
    4560    (1,4560)              0.13753702    
    4561    (1,4561)              9.21419226E-02
    4562    (1,4562)              9.96641411E-02
    4563    (1,4563)              7.54531476E-02
    4564    (1,4564)              8.93031299E-02
    4565    (1,4565)              0.11265910    
    4566    (1,4566)              7.95202535E-02
    4567    (1,4567)              8.76893316E-02
    4568    (1,4568)              0.14683633    
    4569    (1,4569)              8.49587671E-02
    4570    (1,4570)              9.99426289E-02
    4571    (1,4571)              8.99417236E-02
    4572    (1,4572)              0.14243310    
    4573    (1,4573)              0.14595897    
    4574    (1,4574)              0.11682795    
    4575    (1,4575)              0.11896975    
    4576    (1,4576)              0.10924476    
    4577    (1,4577)              0.10324339    
    4578    (1,4578)              0.12589845    
    4579    (1,4579)              0.10794276    
    4580    (1,4580)              0.16567883    
    4581    (1,4581)              0.11067950    
    4582    (1,4582)              0.15114112    
    4583    (1,4583)              0.13201261    
    4584    (1,4584)              0.12943333    
    4585    (1,4585)              0.11521970    
    4586    (1,4586)              0.11306399    
    4587    (1,4587)              9.48730579E-02
    4588    (1,4588)              0.13809403    
    4589    (1,4589)              0.13034359    
    4590    (1,4590)              0.12564690    
    4591    (1,4591)              0.16016566    
    4592    (1,4592)              0.12897722    
    4593    (1,4593)              0.10979615    
    4594    (1,4594)              0.10138419    
    4595    (1,4595)              0.15535839    
    4596    (1,4596)              0.15747900    
    4597    (1,4597)              0.10362106    
    4598    (1,4598)              0.15860936    
    4599    (1,4599)              9.15095390E-02
    4600    (1,4600)              0.12453603    
    4601    (1,4601)              0.12745721    
    4602    (1,4602)              0.10872977    
    4603    (1,4603)              0.13850239    
    4604    (1,4604)              8.68475502E-02
    4605    (1,4605)              0.11427940    
    4606    (1,4606)              0.10786404    
    4607    (1,4607)              0.10455267    
    4608    (1,4608)              0.10981254    
    4609    (1,4609)              9.19983565E-02
    4610    (1,4610)              0.12631810    
    4611    (1,4611)              0.11663341    
    4612    (1,4612)              0.11931475    
    4613    (1,4613)              0.10818286    
    4614    (1,4614)              0.10724088    
    4615    (1,4615)              0.11782921    
    4616    (1,4616)              0.13579638    
    4617    (1,4617)              9.27891090E-02
    4618    (1,4618)              8.08164737E-02
    4619    (1,4619)              0.13553928    
    4620    (1,4620)              0.12063194    
    4621    (1,4621)              0.12099106    
    4622    (1,4622)              0.13878919    
    4623    (1,4623)              8.40696752E-02
    4624    (1,4624)              0.14061073    
    4625    (1,4625)              8.70769941E-02
    4626    (1,4626)              0.13065793    
    4627    (1,4627)              9.47438088E-02
    4628    (1,4628)              0.10295472    
    4629    (1,4629)              0.10542144    
    4630    (1,4630)              0.15301565    
    4631    (1,4631)              0.14547072    
    4632    (1,4632)              0.12533451    
    4633    (1,4633)              0.10157045    
    4634    (1,4634)              0.11936974    
    4635    (1,4635)              9.76908835E-02
    4636    (1,4636)              0.12043400    
    4637    (1,4637)              0.10996762    
    4638    (1,4638)              8.21828628E-02
    4639    (1,4639)              0.13743568    
    4640    (1,4640)              7.22019548E-02
    4641    (1,4641)              9.48946732E-02
    4642    (1,4642)              0.10158118    
    4643    (1,4643)              0.14597645    
    4644    (1,4644)              9.11991328E-02
    4645    (1,4645)              7.79946675E-02
    4646    (1,4646)              0.13547734    
    4647    (1,4647)              8.28202955E-02
    4648    (1,4648)              6.86261244E-02
    4649    (1,4649)              0.11369353    
    4650    (1,4650)              0.14576657    
    4651    (1,4651)              0.14560637    
    4652    (1,4652)              0.12967395    
    4653    (1,4653)              0.16603126    
    4654    (1,4654)              0.11306614    
    4655    (1,4655)              0.10153331    
    4656    (1,4656)              0.17139288    
    4657    (1,4657)              0.12545342    
    4658    (1,4658)              0.12755439    
    4659    (1,4659)              0.11593013    
    4660    (1,4660)              0.15018223    
    4661    (1,4661)              0.11099116    
    4662    (1,4662)              0.14836850    
    4663    (1,4663)              0.11171740    
    4664    (1,4664)              0.10098866    
    4665    (1,4665)              0.16373489    
    4666    (1,4666)              0.10218972    
    4667    (1,4667)              0.10809858    
    4668    (1,4668)              7.29047126E-02
    4669    (1,4669)              0.10071287    
    4670    (1,4670)              0.10638212    
    4671    (1,4671)              8.60984901E-02
    4672    (1,4672)              0.12713902    
    4673    (1,4673)              0.11611886    
    4674    (1,4674)              8.71660853E-02
    4675    (1,4675)              0.12039146    
    4676    (1,4676)              8.59889440E-02
    4677    (1,4677)              7.98820059E-02
    4678    (1,4678)              0.16426674    
    4679    (1,4679)              7.85225949E-02
    4680    (1,4680)              0.12209169    
    4681    (1,4681)              7.89971499E-02
    4682    (1,4682)              0.16267935    
    4683    (1,4683)              9.87969158E-02
    4684    (1,4684)              9.92494712E-02
    4685    (1,4685)              0.10432901    
    4686    (1,4686)              0.13731730    
    4687    (1,4687)              8.03149729E-02
    4688    (1,4688)              9.19233319E-02
    4689    (1,4689)              6.54218363E-02
    4690    (1,4690)              7.39494001E-02
    4691    (1,4691)              6.85863740E-02
    4692    (1,4692)              0.14520339    
    4693    (1,4693)              8.45911139E-02
    4694    (1,4694)              8.16932595E-02
    4695    (1,4695)              9.43208111E-02
    4696    (1,4696)              7.75224312E-02
    4697    (1,4697)              0.12536452    
    4698    (1,4698)              7.64508926E-02
    4699    (1,4699)              0.11830916    
    4700    (1,4700)              9.71267240E-02
    4701    (1,4701)              8.04322616E-02
    4702    (1,4702)              6.88304954E-02
    4703    (1,4703)              8.47256369E-02
    4704    (1,4704)              7.43716485E-02
    4705    (1,4705)              9.11957663E-02
    4706    (1,4706)              9.88554997E-02
    4707    (1,4707)              0.11533423    
    4708    (1,4708)              0.12969856    
    4709    (1,4709)              0.11027047    
    4710    (1,4710)              0.14487434    
    4711    (1,4711)              0.14653170    
    4712    (1,4712)              0.10135654    
    4713    (1,4713)              0.18397489    
    4714    (1,4714)              0.11250561    
    4715    (1,4715)              0.14485836    
    4716    (1,4716)              0.16800104    
    4717    (1,4717)              0.12571676    
    4718    (1,4718)              0.10696914    
    4719    (1,4719)              0.13959132    
    4720    (1,4720)              9.48441511E-02
    4721    (1,4721)              0.10619956    
    4722    (1,4722)              0.13558337    
    4723    (1,4723)              0.14122825    
    4724    (1,4724)              0.0000000     
    4725    (1,4725)              9.39969346E-02
    4726    (1,4726)              9.35143831E-02
    4727    (1,4727)              0.13137841    
    4728    (1,4728)              8.90564368E-02
    4729    (1,4729)              0.12284580    
    4730    (1,4730)              9.40719969E-02
    4731    (1,4731)              8.93633616E-02
    4732    (1,4732)              0.10251151    
    4733    (1,4733)              9.87470127E-02
    4734    (1,4734)              0.0000000     
    4735    (1,4735)              9.36671138E-02
    4736    (1,4736)              9.48870197E-02
    4737    (1,4737)              0.0000000     
    4738    (1,4738)              9.59933993E-02
    4739    (1,4739)              8.66107279E-02
    4740    (1,4740)              0.12359996    
    4741    (1,4741)              0.10498128    
    4742    (1,4742)              9.82278121E-02
    4743    (1,4743)              0.10913402    
    4744    (1,4744)              0.14003566    
    4745    (1,4745)              0.15302424    
    4746    (1,4746)              0.10584024    
    4747    (1,4747)              0.11295275    
    4748    (1,4748)              0.10441224    
    4749    (1,4749)              0.12554383    
    4750    (1,4750)              8.36193395E-02
    4751    (1,4751)              9.25931583E-02
    4752    (1,4752)              9.70922988E-02
    4753    (1,4753)              9.99113180E-02
    4754    (1,4754)              9.76175162E-02
    4755    (1,4755)              9.58125369E-02
    4756    (1,4756)              0.10115284    
    4757    (1,4757)              0.11390660    
    4758    (1,4758)              0.13770905    
    4759    (1,4759)              0.13867297    
    4760    (1,4760)              0.11029869    
    4761    (1,4761)              0.10302079    
    4762    (1,4762)              7.85972122E-02
    4763    (1,4763)              8.35848943E-02
    4764    (1,4764)              0.13396578    
    4765    (1,4765)              0.16915003    
    4766    (1,4766)              9.88604488E-02
    4767    (1,4767)              0.10208816    
    4768    (1,4768)              0.15425146    
 -----------------------------------------------




 HEAD WILL BE SAVED ON UNIT 1018 AT END OF TIME STEP    1, STRESS PERIOD    1


  VOLUME BUDGET FOR ENTIRE MODEL AT END OF TIME STEP    1, STRESS PERIOD   1
  ---------------------------------------------------------------------------------------------------

     CUMULATIVE VOLUME      L**3       RATES FOR THIS TIME STEP      L**3/T          PACKAGE NAME    
     ------------------                 ------------------------                     ----------------

           IN:                                      IN:
           ---                                      ---
                 WEL =           0.0000                   WEL =           0.0000     WELL_PACKAGE                     
                 RCH =         344.7840                   RCH =         344.7840     RCH                              
                 EVT =           0.0000                   EVT =           0.0000     EVT                              
                 CHD =          10.0358                   CHD =          10.0358     CHD                              

            TOTAL IN =         354.8198              TOTAL IN =         354.8198

          OUT:                                     OUT:
          ----                                     ----
                 WEL =          74.9709                   WEL =          74.9709     WELL_PACKAGE                     
                 RCH =           0.0000                   RCH =           0.0000     RCH                              
                 EVT =           5.0764                   EVT =           5.0764     EVT                              
                 CHD =         274.7735                   CHD =         274.7735     CHD                              

           TOTAL OUT =         354.8209             TOTAL OUT =         354.8209

            IN - OUT =      -1.0422E-03              IN - OUT =      -1.0422E-03

 PERCENT DISCREPANCY =          -0.00     PERCENT DISCREPANCY =          -0.00




         TIME SUMMARY AT END OF TIME STEP    1 IN STRESS PERIOD    1
                    SECONDS     MINUTES      HOURS       DAYS        YEARS
                    -----------------------------------------------------------
   TIME STEP LENGTH  1.0000     1.66667E-02 2.77778E-04 1.15741E-05 3.16881E-08
 STRESS PERIOD TIME  1.0000     1.66667E-02 2.77778E-04 1.15741E-05 3.16881E-08
         TOTAL TIME  1.0000     1.66667E-02 2.77778E-04 1.15741E-05 3.16881E-08


end timestep

