                                   MODFLOW 6
                U.S. GEOLOGICAL SURVEY MODULAR HYDROLOGIC MODEL
                          GROUNDWATER FLOW MODEL (GWF)
                            VERSION 6.6.0 12/20/2024

   MODFLOW 6 compiled Dec 31 2024 17:10:16 with Intel(R) Fortran Intel(R) 64
   Compiler Classic for applications running on Intel(R) 64, Version 2021.7.0
                             Build 20220726_000000

This software has been approved for release by the U.S. Geological 
Survey (USGS). Although the software has been subjected to rigorous 
review, the USGS reserves the right to update the software as needed 
pursuant to further analysis and review. No warranty, expressed or 
implied, is made by the USGS or the U.S. Government as to the 
functionality of the software and related material nor shall the 
fact of release constitute any such warranty. Furthermore, the 
software is released on condition that neither the USGS nor the U.S. 
Government shall be held liable for any damages resulting from its 
authorized or unauthorized use. Also refer to the USGS Water 
Resources Software User Rights Notice for complete use, copyright, 
and distribution information.


As a work of the United States Government, this USGS product is 
in the public domain within the United States. You can copy, 
modify, distribute, and perform the work, even for commercial 
purposes, all without asking permission. Additionally, USGS 
waives copyright and related rights in the work worldwide 
through CC0 1.0 Universal Public Domain Dedication 
(https://creativecommons.org/publicdomain/zero/1.0/).

The following GNU Lesser General Public License (LGPL) libraries
are used in this USGS product:

    SPARSKIT version 2.0
      ilut, luson, and qsplit 
      (https://www-users.cse.umn.edu/~saad/software/SPARSKIT/)

    RCM - Reverse Cuthill McKee Ordering
      (https://people.math.sc.edu/Burkardt/f_src/rcm/rcm.html)

    BLAS - Basic Linear Algebra Subprograms Level 1
      (https://people.math.sc.edu/Burkardt/f_src/blas1_d/blas1_d.html)

    SPARSEKIT - Sparse Matrix Utility Package
      amux, dperm, dvperm, rperm, and cperm
      (https://people.sc.fsu.edu/~jburkardt/f77_src/sparsekit/sparsekit.html)

The following BSD-3 License libraries are used in this USGS product:

    Modern Fortran DAG Library
      Copyright (c) 2018, Jacob Williams
      All rights reserved.
      (https://github.com/jacobwilliams/daglib)

MODFLOW 6 compiler options: /O2 /heap-arrays:0 /fpe:0 /traceback /nologo /fpp
/c /module:win64\mod_mf6\ /object:win64\obj_mf6\

System command used to initiate simulation:
mf6

MODFLOW was compiled using uniform precision.

Real Variables
  KIND: 8
  TINY (smallest non-zero value):    2.225074-308
  HUGE (largest value):    1.797693+308
  PRECISION: 15
  SIZE IN BITS: 64

Integer Variables
  KIND: 4
  HUGE (largest value): 2147483647
  SIZE IN BITS: 32

Long Integer Variables
  KIND: 8
  HUGE (largest value): 9223372036854775807
  SIZE IN BITS: 64

Logical Variables
  KIND: 4
  SIZE IN BITS: 32
 
 NAMEFILE OPTIONS:
    FLOWS WILL BE SAVED TO BUDGET FILE SPECIFIED IN OUTPUT CONTROL
 END NAMEFILE OPTIONS:

 DISV -- VERTEX GRID DISCRETIZATION PACKAGE, VERSION 1 : 12/23/2015 - INPUT READ FROM MEMPATH: __INPUT__/TRIANGLE_CASEB/DISV                     


 Setting Discretization Options
 End Setting Discretization Options

 Setting Discretization Dimensions
    NLAY = 2
    NCPL = 25262
    NVERT = 13489
 End Setting Discretization Dimensions

 Setting Discretization Griddata
    TOP set from input file
    BOTM set from input file
 End Setting Discretization Griddata

 Discretization Vertex data loaded
 Discretization Cell2d data loaded

 NPF -- NODE PROPERTY FLOW PACKAGE, VERSION 1, 3/30/2015 INPUT READ FROM MEMPATH: __INPUT__/TRIANGLE_CASEB/NPF                      


 IC -- Initial Conditions Package, Version 8, 3/28/2015 input read from mempath: __INPUT__/TRIANGLE_CASEB/IC                       


 Setting NPF Options
    Cell-by-cell flow information will be saved to binary file whenever ICBCFL is not zero.
    Specific discharge will be calculated at cell centers and written to DATA-SPDIS in budget file when requested.
 End Setting NPF Options

 Setting NPF Griddata
    ICELLTYPE set from input file
    K set from input file
    K33 not provided.  Setting K33 = K.
    K22 not provided.  Setting K22 = K.
 End Setting NPF Griddata


 WEL   -- WEL PACKAGE, VERSION 8, 2/22/2014 INPUT READ FROM MEMPATH: __INPUT__/TRIANGLE_CASEB/WELL_PACKAGE             

 PROCESSING WEL BASE OPTIONS
    FLOWS WILL BE SAVED TO BUDGET FILE SPECIFIED IN OUTPUT CONTROL
 END OF WEL BASE OPTIONS

 PROCESSING WEL OPTIONS
 END OF WEL OPTIONS

 PROCESSING WEL BASE DIMENSIONS
    MAXBOUND =   29707
 END OF WEL BASE DIMENSIONS

 RCH   -- RCH PACKAGE, VERSION 8, 2/22/2014 INPUT READ FROM MEMPATH: __INPUT__/TRIANGLE_CASEB/RCH                      

 PROCESSING RCH BASE OPTIONS
    FLOWS WILL BE SAVED TO BUDGET FILE SPECIFIED IN OUTPUT CONTROL
    RCH FLOWS WILL BE PRINTED TO LISTING FILE.
 END OF RCH BASE OPTIONS

 PROCESSING RCH OPTIONS
    RECHARGE WILL BE APPLIED TO SPECIFIED CELL.
 END OF RCH OPTIONS

 PROCESSING RCH BASE DIMENSIONS
    MAXBOUND =   25262
 END OF RCH BASE DIMENSIONS

 EVT   -- EVT PACKAGE, VERSION 8, 2/22/2014 INPUT READ FROM MEMPATH: __INPUT__/TRIANGLE_CASEB/EVT                      

 PROCESSING EVT BASE OPTIONS
    FLOWS WILL BE SAVED TO BUDGET FILE SPECIFIED IN OUTPUT CONTROL
 END OF EVT BASE OPTIONS

 PROCESSING EVT OPTIONS
 END OF EVT OPTIONS

 PROCESSING EVT BASE DIMENSIONS
    MAXBOUND =   22297
 END OF EVT BASE DIMENSIONS

 PROCESSING EVT DIMENSIONS
    NSEG = 1
 END OF EVT DIMENSIONS

 CHD   -- CHD PACKAGE, VERSION 8, 2/22/2014 INPUT READ FROM MEMPATH: __INPUT__/TRIANGLE_CASEB/CHD                      

 PROCESSING CHD BASE OPTIONS
    FLOWS WILL BE SAVED TO BUDGET FILE SPECIFIED IN OUTPUT CONTROL
 END OF CHD BASE OPTIONS

 PROCESSING CHD BASE DIMENSIONS
    MAXBOUND =    3812
 END OF CHD BASE DIMENSIONS
    STRT set from input file
    BINARY GRID INFORMATION WILL BE WRITTEN TO:
      UNIT NUMBER: 1016
      FILE NAME: triangle_caseB.disv.grb

 OPENED triangle_caseB.disv.grb
 FILE TYPE:DATA(BINARY)   UNIT 1016   STATUS:REPLACE             
 FORMAT:UNFORMATTED            ACCESS:STREAM              
 ACTION:READWRITE           

      THE LAST TIME STEP WILL BE PRINTED
      THE LAST TIME STEP WILL BE PRINTED
 # File generated by Flopy version 3.9.1 on 02/10/2026 at 20:59:34.

 PROCESSING OC OPTIONS

    BUDGET INFORMATION WILL BE WRITTEN TO:
      UNIT NUMBER: 1017
      FILE NAME: triangle_caseB.cbc

 OPENED triangle_caseB.cbc
 FILE TYPE:DATA(BINARY)   UNIT 1017   STATUS:REPLACE             
 FORMAT:UNFORMATTED            ACCESS:STREAM              
 ACTION:READWRITE           

    HEAD INFORMATION WILL BE WRITTEN TO:
      UNIT NUMBER: 1018
      FILE NAME: triangle_caseB.hds

 OPENED triangle_caseB.hds
 FILE TYPE:DATA(BINARY)   UNIT 1018   STATUS:REPLACE             
 FORMAT:UNFORMATTED            ACCESS:STREAM              
 ACTION:READWRITE           

 END OF OC OPTIONS

start timestep kper="1" kstp="1" mode="normal"


 BEGIN READING OUTPUT CONTROL FOR STRESS PERIOD 1
      THE LAST TIME STEP WILL BE SAVED
      THE LAST TIME STEP WILL BE SAVED
      THE LAST TIME STEP WILL BE PRINTED

 END READING OUTPUT CONTROL FOR STRESS PERIOD 1
 UBDSV1 SAVING     FLOW-JA-FACE ON UNIT   1017 AT TIME STEP      1, STRESS PERIOD      1
 UBDSV06 SAVING       DATA-SPDIS IN MODEL TRIANGLE_CASEB   PACKAGE NPF             CONNECTED TO MODEL TRIANGLE_CASEB   PACKAGE NPF              ON UNIT   1017 AT TIME STEP      1, STRESS PERIOD      1
 UBDSV06 SAVING              WEL IN MODEL TRIANGLE_CASEB   PACKAGE TRIANGLE_CASEB  CONNECTED TO MODEL TRIANGLE_CASEB   PACKAGE WELL_PACKAGE     ON UNIT   1017 AT TIME STEP      1, STRESS PERIOD      1
 UBDSV06 SAVING              RCH IN MODEL TRIANGLE_CASEB   PACKAGE TRIANGLE_CASEB  CONNECTED TO MODEL TRIANGLE_CASEB   PACKAGE RCH              ON UNIT   1017 AT TIME STEP      1, STRESS PERIOD      1
 UBDSV06 SAVING              EVT IN MODEL TRIANGLE_CASEB   PACKAGE TRIANGLE_CASEB  CONNECTED TO MODEL TRIANGLE_CASEB   PACKAGE EVT              ON UNIT   1017 AT TIME STEP      1, STRESS PERIOD      1
 UBDSV06 SAVING              CHD IN MODEL TRIANGLE_CASEB   PACKAGE TRIANGLE_CASEB  CONNECTED TO MODEL TRIANGLE_CASEB   PACKAGE CHD              ON UNIT   1017 AT TIME STEP      1, STRESS PERIOD      1

 RCH PACKAGE (RCH) FLOW RATES   PERIOD      1   STEP        1
 -----------------------------------------------
   NUMBER   CELLID                    RATE      
 -----------------------------------------------
     1      (1,1)                 7.39078558E-03
     2      (1,2)                 3.37406717E-04
     3      (1,3)                 0.0000000     
     4      (1,4)                 1.00549285E-03
     5      (1,5)                 3.01689516E-03
     6      (1,6)                 2.70427663E-02
     7      (1,7)                 1.12810756E-03
     8      (1,8)                 0.0000000     
     9      (1,9)                 9.64638873E-04
     10     (1,10)                7.90389970E-04
     11     (1,11)                1.94480853E-02
     12     (1,12)                1.54173215E-02
     13     (1,13)                0.0000000     
     14     (1,14)                6.70201620E-04
     15     (1,15)                1.12632293E-02
     16     (1,16)                3.83511729E-03
     17     (1,17)                6.88213401E-04
     18     (1,18)                1.83500922E-02
     19     (1,19)                3.27031307E-02
     20     (1,20)                2.94484038E-02
     21     (1,21)                1.40839991E-02
     22     (1,22)                9.77017102E-04
     23     (1,23)                1.34255475E-03
     24     (1,24)                3.57712061E-03
     25     (1,25)                1.20969419E-02
     26     (1,26)                1.09629388E-03
     27     (1,27)                6.02989052E-04
     28     (1,28)                2.63930072E-02
     29     (1,29)                1.81240218E-04
     30     (1,30)                4.74809460E-03
     31     (1,31)                1.74199811E-04
     32     (1,32)                4.33387414E-04
     33     (1,33)                2.36394356E-04
     34     (1,34)                7.41450113E-04
     35     (1,35)                9.72099551E-04
     36     (1,36)                0.0000000     
     37     (1,37)                0.0000000     
     38     (1,38)                2.24844179E-02
     39     (1,39)                2.96260711E-04
     40     (1,40)                8.94038309E-04
     41     (1,41)                1.47113379E-03
     42     (1,42)                2.21678057E-03
     43     (1,43)                1.18716480E-04
     44     (1,44)                1.18047523E-02
     45     (1,45)                7.70320482E-04
     46     (1,46)                0.0000000     
     47     (1,47)                9.71174887E-04
     48     (1,48)                8.02626596E-05
     49     (1,49)                8.39253786E-02
     50     (1,50)                7.40842026E-03
     51     (1,51)                0.24275771    
     52     (1,52)                2.70539219E-02
     53     (1,53)                3.66384743E-04
     54     (1,54)                3.89425077E-04
     55     (1,55)                9.05059856E-02
     56     (1,56)                4.46989182E-04
     57     (1,57)                8.67832479E-04
     58     (1,58)                0.16070365    
     59     (1,59)                1.43866122E-03
     60     (1,60)                1.16327849E-03
     61     (1,61)                0.13602651    
     62     (1,62)                6.77249123E-03
     63     (1,63)                9.96766404E-04
     64     (1,64)                1.48988575E-02
     65     (1,65)                8.96478721E-03
     66     (1,66)                0.0000000     
     67     (1,67)                1.29899254E-03
     68     (1,68)                1.73793308E-03
     69     (1,69)                2.56059248E-03
     70     (1,70)                5.61246984E-03
     71     (1,71)                3.80281814E-03
     72     (1,72)                3.93404748E-03
     73     (1,73)                1.36449337E-02
     74     (1,74)                2.06462930E-03
     75     (1,75)                2.01239527E-02
     76     (1,76)                6.99531185E-03
     77     (1,77)                1.05513156E-03
     78     (1,78)                1.47366431E-03
     79     (1,79)                5.39824838E-03
     80     (1,80)                3.43060870E-03
     81     (1,81)                3.53582635E-03
     82     (1,82)                1.99167613E-03
     83     (1,83)                7.58559837E-03
     84     (1,84)                4.22652436E-03
     85     (1,85)                3.90697014E-03
     86     (1,86)                1.19905308E-02
     87     (1,87)                5.50576783E-03
     88     (1,88)                6.49262682E-03
     89     (1,89)                4.17599827E-02
     90     (1,90)                6.13427409E-03
     91     (1,91)                2.30888448E-03
     92     (1,92)                9.86461185E-05
     93     (1,93)                1.58944707E-04
     94     (1,94)                1.44645119E-03
     95     (1,95)                1.26506625E-02
     96     (1,96)                0.0000000     
     97     (1,97)                1.29478783E-02
     98     (1,98)                1.77333226E-02
     99     (1,99)                2.78539783E-02
    100     (1,100)               5.79724345E-04
    101     (1,101)               8.02452022E-05
    102     (1,102)               0.0000000     
    103     (1,103)               4.89722124E-02
    104     (1,104)               1.26838957E-03
    105     (1,105)               9.96415470E-04
    106     (1,106)               8.45939003E-02
    107     (1,107)               5.27058267E-04
    108     (1,108)               1.06118029E-02
    109     (1,109)               1.09103262E-02
    110     (1,110)               1.53188261E-02
    111     (1,111)               0.0000000     
    112     (1,112)               2.89495861E-02
    113     (1,113)               8.84023854E-03
    114     (1,114)               2.23025252E-03
    115     (1,115)               2.19615058E-03
    116     (1,116)               2.70010608E-03
    117     (1,117)               2.11404050E-03
    118     (1,118)               2.11143214E-03
    119     (1,119)               2.48480458E-03
    120     (1,120)               3.26564361E-03
    121     (1,121)               2.83414485E-03
    122     (1,122)               2.29078583E-03
    123     (1,123)               4.94437788E-03
    124     (1,124)               4.71408930E-03
    125     (1,125)               2.28734139E-03
    126     (1,126)               2.25024918E-03
    127     (1,127)               1.60651973E-03
    128     (1,128)               2.94907017E-03
    129     (1,129)               3.95530095E-03
    130     (1,130)               7.47443086E-04
    131     (1,131)               4.03883854E-03
    132     (1,132)               1.68909061E-03
    133     (1,133)               2.15620697E-03
    134     (1,134)               1.78656252E-03
    135     (1,135)               3.69770741E-03
    136     (1,136)               1.66193634E-02
    137     (1,137)               1.83734455E-02
    138     (1,138)               4.58336446E-03
    139     (1,139)               9.72769713E-03
    140     (1,140)               2.26461765E-03
    141     (1,141)               4.21413772E-03
    142     (1,142)               1.18354774E-03
    143     (1,143)               1.56069148E-03
    144     (1,144)               1.76498009E-03
    145     (1,145)               1.83986578E-03
    146     (1,146)               1.40236015E-03
    147     (1,147)               6.79202098E-03
    148     (1,148)               1.51955837E-03
    149     (1,149)               1.18443531E-03
    150     (1,150)               1.55754339E-03
    151     (1,151)               3.95022625E-03
    152     (1,152)               5.93300344E-03
    153     (1,153)               1.41426979E-03
    154     (1,154)               1.25344936E-03
    155     (1,155)               8.73161590E-04
    156     (1,156)               5.52686559E-04
    157     (1,157)               1.37239980E-03
    158     (1,158)               1.15136490E-03
    159     (1,159)               2.45573594E-04
    160     (1,160)               2.26924917E-03
    161     (1,161)               1.36625022E-03
    162     (1,162)               6.85213418E-04
    163     (1,163)               7.25485587E-04
    164     (1,164)               4.21328950E-04
    165     (1,165)               7.69685353E-04
    166     (1,166)               7.23175207E-04
    167     (1,167)               7.62906731E-04
    168     (1,168)               1.17038109E-03
    169     (1,169)               1.99035580E-03
    170     (1,170)               2.27341561E-03
    171     (1,171)               1.18947111E-03
    172     (1,172)               2.45991479E-04
    173     (1,173)               8.30921455E-05
    174     (1,174)               1.42697881E-03
    175     (1,175)               1.74613809E-04
    176     (1,176)               3.12981826E-04
    177     (1,177)               1.32389353E-03
    178     (1,178)               1.81662486E-04
    179     (1,179)               1.72901990E-03
    180     (1,180)               6.29037254E-04
    181     (1,181)               3.69940006E-03
    182     (1,182)               7.26361179E-05
    183     (1,183)               3.08261329E-03
    184     (1,184)               2.42722778E-03
    185     (1,185)               1.20537258E-03
    186     (1,186)               7.58037920E-03
    187     (1,187)               6.82673828E-04
    188     (1,188)               2.45292477E-03
    189     (1,189)               2.98299594E-03
    190     (1,190)               6.02784262E-03
    191     (1,191)               1.90581109E-03
    192     (1,192)               2.32310881E-03
    193     (1,193)               1.74297179E-03
    194     (1,194)               4.93451076E-03
    195     (1,195)               2.40352420E-03
    196     (1,196)               1.23905637E-03
    197     (1,197)               2.12616850E-03
    198     (1,198)               3.53931872E-03
    199     (1,199)               9.70305520E-04
    200     (1,200)               2.06616606E-03
    201     (1,201)               1.80355379E-04
    202     (1,202)               1.44247588E-03
    203     (1,203)               1.07439413E-04
    204     (1,204)               4.77331273E-04
    205     (1,205)               9.51417425E-04
    206     (1,206)               8.18173942E-04
    207     (1,207)               1.63625240E-03
    208     (1,208)               1.08485361E-04
    209     (1,209)               5.05242923E-04
    210     (1,210)               7.59216352E-03
    211     (1,211)               1.76945744E-03
    212     (1,212)               1.31614201E-03
    213     (1,213)               1.21290499E-03
    214     (1,214)               1.08545255E-03
    215     (1,215)               9.76292168E-04
    216     (1,216)               1.15086538E-02
    217     (1,217)               7.16695438E-03
    218     (1,218)               1.66878227E-03
    219     (1,219)               2.97859556E-03
    220     (1,220)               1.64950369E-03
    221     (1,221)               4.50925960E-04
    222     (1,222)               1.18710018E-03
    223     (1,223)               2.78949848E-03
    224     (1,224)               1.37222172E-03
    225     (1,225)               2.25056937E-03
    226     (1,226)               3.86063428E-03
    227     (1,227)               3.42739443E-03
    228     (1,228)               4.62579855E-03
    229     (1,229)               3.49595920E-03
    230     (1,230)               2.76254902E-03
    231     (1,231)               8.41299809E-03
    232     (1,232)               2.24300480E-03
    233     (1,233)               6.09461879E-03
    234     (1,234)               6.17963823E-03
    235     (1,235)               2.21315051E-03
    236     (1,236)               4.43711226E-03
    237     (1,237)               4.19967838E-03
    238     (1,238)               1.09410983E-03
    239     (1,239)               8.78950213E-04
    240     (1,240)               1.70826366E-03
    241     (1,241)               1.39645981E-03
    242     (1,242)               7.85190115E-05
    243     (1,243)               1.32028745E-03
    244     (1,244)               1.29203638E-03
    245     (1,245)               2.79477269E-03
    246     (1,246)               2.45337186E-03
    247     (1,247)               4.31147349E-03
    248     (1,248)               6.58987008E-03
    249     (1,249)               1.18882885E-04
    250     (1,250)               9.88422322E-05
    251     (1,251)               2.20663628E-03
    252     (1,252)               4.44860617E-04
    253     (1,253)               5.80211510E-04
    254     (1,254)               5.64368030E-04
    255     (1,255)               2.58677113E-04
    256     (1,256)               3.12818426E-03
    257     (1,257)               1.78857726E-03
    258     (1,258)               4.78749073E-04
    259     (1,259)               1.95080294E-03
    260     (1,260)               3.55444706E-03
    261     (1,261)               3.18637946E-03
    262     (1,262)               5.32897037E-04
    263     (1,263)               2.07806920E-03
    264     (1,264)               2.10554754E-03
    265     (1,265)               2.68012134E-03
    266     (1,266)               6.31041615E-03
    267     (1,267)               1.44164595E-03
    268     (1,268)               1.58989604E-03
    269     (1,269)               1.41193475E-03
    270     (1,270)               3.47817228E-03
    271     (1,271)               8.00067478E-04
    272     (1,272)               3.94595267E-03
    273     (1,273)               1.43096646E-02
    274     (1,274)               7.98366289E-04
    275     (1,275)               4.54302614E-03
    276     (1,276)               2.05042755E-03
    277     (1,277)               6.86069060E-03
    278     (1,278)               1.86277308E-03
    279     (1,279)               8.77823502E-04
    280     (1,280)               3.86726210E-03
    281     (1,281)               1.89003212E-03
    282     (1,282)               2.96265198E-03
    283     (1,283)               1.81042354E-03
    284     (1,284)               5.08814964E-03
    285     (1,285)               3.22192154E-03
    286     (1,286)               4.23058558E-03
    287     (1,287)               1.84541683E-03
    288     (1,288)               2.79355522E-03
    289     (1,289)               3.11354026E-03
    290     (1,290)               5.10319695E-03
    291     (1,291)               3.53020481E-03
    292     (1,292)               6.98962023E-04
    293     (1,293)               1.87815105E-04
    294     (1,294)               1.68314416E-03
    295     (1,295)               2.46137658E-03
    296     (1,296)               1.85548626E-04
    297     (1,297)               7.92726372E-04
    298     (1,298)               1.11625390E-03
    299     (1,299)               1.61629434E-03
    300     (1,300)               7.92654053E-04
    301     (1,301)               3.08597979E-03
    302     (1,302)               1.66050725E-03
    303     (1,303)               2.17567466E-03
    304     (1,304)               1.63697939E-03
    305     (1,305)               1.58539078E-03
    306     (1,306)               1.60103662E-03
    307     (1,307)               4.53187647E-03
    308     (1,308)               9.70405565E-04
    309     (1,309)               3.70283626E-03
    310     (1,310)               6.33073216E-03
    311     (1,311)               7.95118866E-04
    312     (1,312)               2.28700588E-03
    313     (1,313)               1.38527551E-03
    314     (1,314)               2.36884946E-03
    315     (1,315)               1.75555096E-03
    316     (1,316)               2.60074319E-03
    317     (1,317)               1.44719381E-03
    318     (1,318)               1.44537512E-03
    319     (1,319)               3.89288860E-03
    320     (1,320)               4.01025321E-03
    321     (1,321)               7.96808130E-04
    322     (1,322)               6.83040771E-03
    323     (1,323)               6.03925322E-03
    324     (1,324)               3.85776826E-03
    325     (1,325)               2.61841409E-03
    326     (1,326)               3.16791892E-03
    327     (1,327)               6.12373730E-03
    328     (1,328)               1.52665839E-03
    329     (1,329)               1.81033250E-04
    330     (1,330)               2.25788406E-04
    331     (1,331)               4.69052886E-05
    332     (1,332)               7.10217953E-05
    333     (1,333)               1.46530669E-03
    334     (1,334)               1.56408777E-03
    335     (1,335)               1.30891496E-03
    336     (1,336)               6.25833079E-03
    337     (1,337)               1.37785425E-03
    338     (1,338)               1.92811663E-03
    339     (1,339)               4.19851214E-04
    340     (1,340)               9.74476507E-04
    341     (1,341)               3.05312244E-03
    342     (1,342)               4.10398608E-04
    343     (1,343)               5.38079824E-04
    344     (1,344)               1.33187240E-03
    345     (1,345)               1.35377161E-03
    346     (1,346)               2.82689370E-03
    347     (1,347)               1.45265482E-03
    348     (1,348)               3.86305728E-03
    349     (1,349)               2.54642304E-03
    350     (1,350)               7.85003869E-03
    351     (1,351)               2.40997505E-03
    352     (1,352)               7.98444627E-04
    353     (1,353)               3.84148455E-03
    354     (1,354)               2.35756691E-03
    355     (1,355)               8.02265688E-04
    356     (1,356)               3.85898900E-03
    357     (1,357)               3.06707384E-03
    358     (1,358)               1.80616315E-03
    359     (1,359)               8.01149113E-04
    360     (1,360)               7.84833917E-03
    361     (1,361)               1.89643260E-03
    362     (1,362)               7.98357564E-04
    363     (1,363)               3.14505064E-03
    364     (1,364)               5.18266625E-03
    365     (1,365)               8.28788027E-04
    366     (1,366)               2.81495209E-03
    367     (1,367)               7.97954044E-03
    368     (1,368)               8.28529871E-04
    369     (1,369)               6.76482655E-03
    370     (1,370)               8.00164055E-03
    371     (1,371)               3.15386700E-03
    372     (1,372)               3.84145868E-03
    373     (1,373)               2.58912235E-03
    374     (1,374)               7.77283069E-03
    375     (1,375)               3.02589409E-03
    376     (1,376)               1.58869536E-03
    377     (1,377)               9.61964552E-03
    378     (1,378)               4.00996359E-03
    379     (1,379)               4.71483649E-03
    380     (1,380)               2.68399307E-03
    381     (1,381)               8.16355225E-04
    382     (1,382)               8.68140567E-04
    383     (1,383)               3.13161044E-04
    384     (1,384)               5.97421145E-04
    385     (1,385)               7.49532773E-04
    386     (1,386)               2.85072234E-03
    387     (1,387)               2.71683083E-04
    388     (1,388)               2.40666570E-03
    389     (1,389)               7.18958879E-04
    390     (1,390)               8.10217366E-03
    391     (1,391)               7.95173809E-04
    392     (1,392)               0.12199727    
    393     (1,393)               7.95533369E-04
    394     (1,394)               3.10565336E-03
    395     (1,395)               3.04207283E-03
    396     (1,396)               7.97282988E-04
    397     (1,397)               8.58167551E-03
    398     (1,398)               7.13985227E-03
    399     (1,399)               2.78050805E-04
    400     (1,400)               1.45734759E-02
    401     (1,401)               1.75508901E-03
    402     (1,402)               4.36142557E-03
    403     (1,403)               3.49919383E-03
    404     (1,404)               7.96888657E-04
    405     (1,405)               8.16928313E-04
    406     (1,406)               2.79250304E-03
    407     (1,407)               8.19185895E-04
    408     (1,408)               5.11553362E-02
    409     (1,409)               2.81368376E-02
    410     (1,410)               3.03515823E-03
    411     (1,411)               1.21148442E-03
    412     (1,412)               1.96641607E-03
    413     (1,413)               7.97121541E-04
    414     (1,414)               1.20806978E-03
    415     (1,415)               7.93891433E-04
    416     (1,416)               3.84440053E-03
    417     (1,417)               3.02888780E-03
    418     (1,418)               7.95439746E-04
    419     (1,419)               3.84517275E-03
    420     (1,420)               3.83821471E-03
    421     (1,421)               7.89390282E-03
    422     (1,422)               7.96715272E-03
    423     (1,423)               8.00058123E-03
    424     (1,424)               1.95921090E-03
    425     (1,425)               1.21324419E-03
    426     (1,426)               3.11313077E-03
    427     (1,427)               2.46430081E-03
    428     (1,428)               1.79313394E-03
    429     (1,429)               5.59145165E-03
    430     (1,430)               4.81634790E-03
    431     (1,431)               2.27601195E-03
    432     (1,432)               3.98398837E-03
    433     (1,433)               2.34186721E-03
    434     (1,434)               1.94290235E-03
    435     (1,435)               1.35116878E-03
    436     (1,436)               1.21154700E-03
    437     (1,437)               1.35287771E-03
    438     (1,438)               3.94948608E-03
    439     (1,439)               4.23755059E-04
    440     (1,440)               2.84527867E-03
    441     (1,441)               3.99983006E-03
    442     (1,442)               2.10824941E-03
    443     (1,443)               1.21205883E-03
    444     (1,444)               1.40544866E-03
    445     (1,445)               2.01122885E-03
    446     (1,446)               2.33251536E-03
    447     (1,447)               1.30567042E-02
    448     (1,448)               1.91535893E-03
    449     (1,449)               4.51776216E-03
    450     (1,450)               7.14563757E-03
    451     (1,451)               3.83839973E-03
    452     (1,452)               7.94484207E-04
    453     (1,453)               7.94365935E-04
    454     (1,454)               3.42407342E-03
    455     (1,455)               1.70492788E-03
    456     (1,456)               2.25131880E-03
    457     (1,457)               1.94596978E-03
    458     (1,458)               1.22743700E-03
    459     (1,459)               3.76450575E-03
    460     (1,460)               6.84337272E-03
    461     (1,461)               2.77640128E-03
    462     (1,462)               1.56188780E-03
    463     (1,463)               6.13087525E-03
    464     (1,464)               3.02335874E-03
    465     (1,465)               1.68390298E-03
    466     (1,466)               5.39550484E-03
    467     (1,467)               3.01910057E-03
    468     (1,468)               2.81439479E-03
    469     (1,469)               6.47100793E-03
    470     (1,470)               3.77102170E-03
    471     (1,471)               7.68241355E-03
    472     (1,472)               2.25933845E-03
    473     (1,473)               1.85149640E-03
    474     (1,474)               1.43290385E-04
    475     (1,475)               3.33530404E-03
    476     (1,476)               2.59219685E-04
    477     (1,477)               4.20964478E-03
    478     (1,478)               8.17496651E-04
    479     (1,479)               2.54101900E-03
    480     (1,480)               7.39896080E-03
    481     (1,481)               1.28856874E-07
    482     (1,482)               9.50389081E-03
    483     (1,483)               2.79168070E-03
    484     (1,484)               7.36687672E-03
    485     (1,485)               1.97185311E-03
    486     (1,486)               1.97594678E-03
    487     (1,487)               3.13152320E-03
    488     (1,488)               3.36966839E-03
    489     (1,489)               1.75128977E-03
    490     (1,490)               7.96415078E-03
    491     (1,491)               9.11183360E-04
    492     (1,492)               3.10439413E-03
    493     (1,493)               4.89958288E-03
    494     (1,494)               1.08602608E-04
    495     (1,495)               1.37987163E-04
    496     (1,496)               5.03193097E-03
    497     (1,497)               1.56196214E-04
    498     (1,498)               1.53206413E-04
    499     (1,499)               8.33756070E-04
    500     (1,500)               6.61377650E-04
    501     (1,501)               0.0000000     
    502     (1,502)               3.25426748E-04
    503     (1,503)               0.0000000     
    504     (1,504)               8.15454639E-03
    505     (1,505)               8.78452772E-04
    506     (1,506)               1.51110009E-04
    507     (1,507)               5.94422733E-03
    508     (1,508)               1.34918339E-03
    509     (1,509)               1.50600850E-03
    510     (1,510)               2.90057677E-03
    511     (1,511)               3.74442912E-03
    512     (1,512)               2.79640439E-03
    513     (1,513)               3.44844183E-04
    514     (1,514)               7.58252729E-04
    515     (1,515)               3.36482148E-03
    516     (1,516)               1.43612567E-04
    517     (1,517)               3.43867669E-04
    518     (1,518)               7.42467406E-03
    519     (1,519)               7.92740010E-04
    520     (1,520)               1.98074719E-03
    521     (1,521)               3.02545608E-03
    522     (1,522)               7.91880753E-04
    523     (1,523)               7.54800644E-04
    524     (1,524)               3.01435680E-03
    525     (1,525)               3.65530679E-03
    526     (1,526)               7.41930543E-03
    527     (1,527)               3.02241282E-03
    528     (1,528)               2.88179962E-03
    529     (1,529)               7.91134967E-04
    530     (1,530)               3.82287632E-03
    531     (1,531)               8.99786457E-03
    532     (1,532)               4.32814865E-03
    533     (1,533)               7.65969415E-03
    534     (1,534)               7.90151392E-04
    535     (1,535)               7.64146669E-03
    536     (1,536)               3.00670639E-03
    537     (1,537)               3.82034388E-03
    538     (1,538)               4.82408022E-03
    539     (1,539)               7.58953003E-04
    540     (1,540)               9.55475904E-03
    541     (1,541)               1.22024624E-03
    542     (1,542)               7.52604301E-04
    543     (1,543)               3.64958317E-03
    544     (1,544)               1.05753247E-03
    545     (1,545)               1.29909912E-03
    546     (1,546)               4.00230833E-03
    547     (1,547)               3.18944294E-03
    548     (1,548)               1.58804445E-03
    549     (1,549)               1.24288307E-03
    550     (1,550)               4.18619095E-03
    551     (1,551)               1.74390564E-03
    552     (1,552)               2.12442868E-03
    553     (1,553)               2.10632433E-03
    554     (1,554)               4.42642019E-03
    555     (1,555)               2.04693978E-03
    556     (1,556)               4.56987774E-03
    557     (1,557)               9.82170966E-04
    558     (1,558)               4.59683776E-03
    559     (1,559)               1.10174414E-03
    560     (1,560)               3.02514661E-03
    561     (1,561)               2.30257610E-03
    562     (1,562)               1.49521191E-03
    563     (1,563)               8.19528640E-04
    564     (1,564)               2.16913820E-03
    565     (1,565)               0.0000000     
    566     (1,566)               5.35240963E-03
    567     (1,567)               1.05045189E-03
    568     (1,568)               1.69128483E-02
    569     (1,569)               3.35752918E-03
    570     (1,570)               8.88376861E-03
    571     (1,571)               3.45760210E-03
    572     (1,572)               1.37663512E-03
    573     (1,573)               2.72854536E-03
    574     (1,574)               1.50573062E-03
    575     (1,575)               7.55362267E-04
    576     (1,576)               1.01707667E-03
    577     (1,577)               5.87608106E-03
    578     (1,578)               1.77492066E-03
    579     (1,579)               1.11404592E-03
    580     (1,580)               1.46900121E-03
    581     (1,581)               1.67835535E-03
    582     (1,582)               1.08200969E-03
    583     (1,583)               2.42031884E-03
    584     (1,584)               1.95314977E-03
    585     (1,585)               3.15005264E-03
    586     (1,586)               5.61420891E-03
    587     (1,587)               2.31666898E-03
    588     (1,588)               5.22652140E-03
    589     (1,589)               1.93245043E-03
    590     (1,590)               2.04781802E-03
    591     (1,591)               1.14771037E-03
    592     (1,592)               2.20754889E-03
    593     (1,593)               1.66837545E-03
    594     (1,594)               5.61641755E-03
    595     (1,595)               1.74861653E-03
    596     (1,596)               1.26534840E-03
    597     (1,597)               1.23869598E-03
    598     (1,598)               1.52094436E-03
    599     (1,599)               7.29790053E-03
    600     (1,600)               3.79324360E-03
    601     (1,601)               5.36993107E-03
    602     (1,602)               6.41856071E-03
    603     (1,603)               4.27748906E-03
    604     (1,604)               4.42450323E-03
    605     (1,605)               2.65666033E-03
    606     (1,606)               1.26830042E-03
    607     (1,607)               1.07799828E-03
    608     (1,608)               1.08570368E-03
    609     (1,609)               9.30195890E-04
    610     (1,610)               4.71221818E-03
    611     (1,611)               1.28867027E-03
    612     (1,612)               5.48015750E-03
    613     (1,613)               2.12724786E-03
    614     (1,614)               4.73285341E-03
    615     (1,615)               1.41531682E-03
    616     (1,616)               1.13242250E-03
    617     (1,617)               1.48994056E-03
    618     (1,618)               1.06214041E-03
    619     (1,619)               1.54350376E-03
    620     (1,620)               1.11719942E-03
    621     (1,621)               1.47768013E-03
    622     (1,622)               6.62818293E-04
    623     (1,623)               2.64989087E-03
    624     (1,624)               4.00698015E-03
    625     (1,625)               7.68883925E-04
    626     (1,626)               2.86015135E-03
    627     (1,627)               3.12846224E-03
    628     (1,628)               7.62428533E-04
    629     (1,629)               2.69747705E-03
    630     (1,630)               1.56472323E-03
    631     (1,631)               1.51438347E-03
    632     (1,632)               2.69840154E-03
    633     (1,633)               3.33395469E-03
    634     (1,634)               3.00671537E-03
    635     (1,635)               5.10494750E-04
    636     (1,636)               1.23688735E-03
    637     (1,637)               7.76683891E-04
    638     (1,638)               3.54464073E-03
    639     (1,639)               2.03587742E-03
    640     (1,640)               1.54285284E-03
    641     (1,641)               1.15512928E-03
    642     (1,642)               2.18016169E-03
    643     (1,643)               3.12871418E-03
    644     (1,644)               2.90299995E-03
    645     (1,645)               2.55079810E-03
    646     (1,646)               4.59517388E-03
    647     (1,647)               1.70894883E-03
    648     (1,648)               2.42998384E-03
    649     (1,649)               4.67597523E-03
    650     (1,650)               2.54475881E-03
    651     (1,651)               5.07484895E-03
    652     (1,652)               3.62950516E-03
    653     (1,653)               8.08406107E-03
    654     (1,654)               9.70470772E-04
    655     (1,655)               1.53707560E-03
    656     (1,656)               2.90489400E-03
    657     (1,657)               7.42331909E-03
    658     (1,658)               1.40780592E-03
    659     (1,659)               5.61439386E-03
    660     (1,660)               5.67705717E-03
    661     (1,661)               2.27509984E-03
    662     (1,662)               3.75336480E-03
    663     (1,663)               7.69821263E-04
    664     (1,664)               1.77889981E-03
    665     (1,665)               1.39691763E-02
    666     (1,666)               7.74045128E-04
    667     (1,667)               1.77952687E-03
    668     (1,668)               2.03099322E-03
    669     (1,669)               7.79933932E-04
    670     (1,670)               3.72810771E-03
    671     (1,671)               4.19266338E-03
    672     (1,672)               1.23339903E-03
    673     (1,673)               2.98018058E-03
    674     (1,674)               4.03800173E-03
    675     (1,675)               3.73937709E-03
    676     (1,676)               7.76458233E-04
    677     (1,677)               1.57774858E-03
    678     (1,678)               8.40104096E-04
    679     (1,679)               5.86162825E-03
    680     (1,680)               1.50074222E-03
    681     (1,681)               1.55109075E-03
    682     (1,682)               7.42560841E-04
    683     (1,683)               3.00810005E-03
    684     (1,684)               1.80799457E-03
    685     (1,685)               2.28688990E-03
    686     (1,686)               4.25822935E-03
    687     (1,687)               1.23431250E-03
    688     (1,688)               2.39100086E-03
    689     (1,689)               6.74705135E-04
    690     (1,690)               3.05197729E-03
    691     (1,691)               4.74604327E-04
    692     (1,692)               6.00372453E-04
    693     (1,693)               1.73895175E-03
    694     (1,694)               7.94763694E-04
    695     (1,695)               1.21032665E-03
    696     (1,696)               1.35026638E-03
    697     (1,697)               1.26006860E-03
    698     (1,698)               1.34845261E-03
    699     (1,699)               7.93737279E-04
    700     (1,700)               2.69912187E-03
    701     (1,701)               1.56778543E-03
    702     (1,702)               7.62176332E-04
    703     (1,703)               4.80141119E-04
    704     (1,704)               3.83822786E-03
    705     (1,705)               1.06610658E-03
    706     (1,706)               1.87464746E-03
    707     (1,707)               1.78500740E-03
    708     (1,708)               2.02159120E-03
    709     (1,709)               1.48729018E-03
    710     (1,710)               1.30410801E-03
    711     (1,711)               8.54936046E-04
    712     (1,712)               1.31290851E-03
    713     (1,713)               1.30314559E-03
    714     (1,714)               1.79464854E-03
    715     (1,715)               1.64800721E-03
    716     (1,716)               1.16665449E-03
    717     (1,717)               1.03440467E-03
    718     (1,718)               1.60478528E-03
    719     (1,719)               6.36173221E-04
    720     (1,720)               1.17165240E-03
    721     (1,721)               1.05750919E-03
    722     (1,722)               7.72054594E-03
    723     (1,723)               1.17795369E-03
    724     (1,724)               3.04803411E-03
    725     (1,725)               7.40737581E-03
    726     (1,726)               1.31404953E-03
    727     (1,727)               1.31422622E-03
    728     (1,728)               2.89967070E-03
    729     (1,729)               2.68768965E-03
    730     (1,730)               1.27769429E-03
    731     (1,731)               3.40588142E-03
    732     (1,732)               7.72698355E-04
    733     (1,733)               1.67514722E-03
    734     (1,734)               2.94207374E-03
    735     (1,735)               1.30585884E-03
    736     (1,736)               2.87984999E-03
    737     (1,737)               7.95478296E-04
    738     (1,738)               3.83560602E-03
    739     (1,739)               9.44502116E-04
    740     (1,740)               2.02980655E-03
    741     (1,741)               6.88768181E-03
    742     (1,742)               1.88605166E-03
    743     (1,743)               4.67899321E-03
    744     (1,744)               3.01330033E-03
    745     (1,745)               7.70675647E-03
    746     (1,746)               1.34888919E-03
    747     (1,747)               7.94649158E-04
    748     (1,748)               6.19019100E-03
    749     (1,749)               5.99809386E-03
    750     (1,750)               4.39391797E-03
    751     (1,751)               5.10317125E-03
    752     (1,752)               3.75826521E-03
    753     (1,753)               2.08117890E-03
    754     (1,754)               3.35019339E-03
    755     (1,755)               1.38107713E-03
    756     (1,756)               1.27656065E-03
    757     (1,757)               5.66932453E-03
    758     (1,758)               2.73915426E-02
    759     (1,759)               1.69871433E-03
    760     (1,760)               2.51701438E-04
    761     (1,761)               4.70832560E-05
    762     (1,762)               1.01376769E-02
    763     (1,763)               7.56066480E-04
    764     (1,764)               2.87852000E-03
    765     (1,765)               3.65077805E-03
    766     (1,766)               7.55938839E-04
    767     (1,767)               1.83733496E-03
    768     (1,768)               3.65208480E-03
    769     (1,769)               7.33131461E-03
    770     (1,770)               7.32798195E-03
    771     (1,771)               7.53241961E-04
    772     (1,772)               2.83117694E-03
    773     (1,773)               0.0000000     
    774     (1,774)               3.63664577E-03
    775     (1,775)               1.22158320E-02
    776     (1,776)               2.87171319E-03
    777     (1,777)               2.87925041E-03
    778     (1,778)               7.53592897E-04
    779     (1,779)               7.32791176E-03
    780     (1,780)               3.63762143E-03
    781     (1,781)               7.56529960E-04
    782     (1,782)               2.87901945E-03
    783     (1,783)               7.57094340E-04
    784     (1,784)               2.88051223E-03
    785     (1,785)               5.47111386E-03
    786     (1,786)               3.65616343E-03
    787     (1,787)               3.65766026E-03
    788     (1,788)               1.82785007E-03
    789     (1,789)               1.56951453E-03
    790     (1,790)               7.57600672E-04
    791     (1,791)               7.34566186E-03
    792     (1,792)               7.57618458E-04
    793     (1,793)               7.56399628E-04
    794     (1,794)               1.83816609E-03
    795     (1,795)               2.48828629E-03
    796     (1,796)               2.60395578E-03
    797     (1,797)               1.59051975E-03
    798     (1,798)               1.56905262E-03
    799     (1,799)               7.57733449E-04
    800     (1,800)               5.32066165E-03
    801     (1,801)               7.57111604E-04
    802     (1,802)               1.60716971E-03
    803     (1,803)               1.59126697E-03
    804     (1,804)               2.48794973E-03
    805     (1,805)               2.87036834E-03
    806     (1,806)               7.21537407E-03
    807     (1,807)               7.38902500E-04
    808     (1,808)               8.37152698E-03
    809     (1,809)               2.81836061E-03
    810     (1,810)               7.39212756E-04
    811     (1,811)               2.53742838E-03
    812     (1,812)               3.16523120E-03
    813     (1,813)               3.82278704E-03
    814     (1,814)               1.45675961E-03
    815     (1,815)               2.28438058E-03
    816     (1,816)               2.94337880E-03
    817     (1,817)               5.52923246E-03
    818     (1,818)               7.17848319E-03
    819     (1,819)               7.38203531E-04
    820     (1,820)               2.09099818E-03
    821     (1,821)               7.38534999E-04
    822     (1,822)               3.56638546E-03
    823     (1,823)               3.06271075E-03
    824     (1,824)               2.66712237E-03
    825     (1,825)               3.56736570E-03
    826     (1,826)               4.42701110E-03
    827     (1,827)               2.04007174E-03
    828     (1,828)               2.86863944E-03
    829     (1,829)               8.31496551E-03
    830     (1,830)               6.86112681E-03
    831     (1,831)               2.93623610E-03
    832     (1,832)               3.80978610E-03
    833     (1,833)               7.43459514E-04
    834     (1,834)               7.20731580E-03
    835     (1,835)               3.21421762E-03
    836     (1,836)               2.83085773E-03
    837     (1,837)               7.44243026E-03
    838     (1,838)               2.83247368E-03
    839     (1,839)               1.23650110E-03
    840     (1,840)               1.11996332E-03
    841     (1,841)               1.34884247E-03
    842     (1,842)               1.72980633E-03
    843     (1,843)               1.25961737E-03
    844     (1,844)               4.10543437E-03
    845     (1,845)               2.18421084E-03
    846     (1,846)               1.12997822E-03
    847     (1,847)               1.16156520E-03
    848     (1,848)               3.01518703E-03
    849     (1,849)               6.07700148E-03
    850     (1,850)               2.09547581E-03
    851     (1,851)               7.43870511E-04
    852     (1,852)               1.26078510E-03
    853     (1,853)               1.65395437E-03
    854     (1,854)               1.25150153E-02
    855     (1,855)               6.61028624E-03
    856     (1,856)               2.24437080E-03
    857     (1,857)               6.42615852E-03
    858     (1,858)               7.59729270E-04
    859     (1,859)               7.62347939E-04
    860     (1,860)               2.90202160E-03
    861     (1,861)               3.68177211E-03
    862     (1,862)               7.62374466E-04
    863     (1,863)               2.89149342E-03
    864     (1,864)               2.56898427E-03
    865     (1,865)               7.59161425E-04
    866     (1,866)               3.96733992E-03
    867     (1,867)               7.59106649E-04
    868     (1,868)               5.74695246E-03
    869     (1,869)               7.59775600E-04
    870     (1,870)               3.66606870E-03
    871     (1,871)               3.79971087E-03
    872     (1,872)               1.96504856E-03
    873     (1,873)               3.66789131E-03
    874     (1,874)               2.11435961E-03
    875     (1,875)               5.27164310E-03
    876     (1,876)               2.88398213E-03
    877     (1,877)               7.63083736E-04
    878     (1,878)               7.63153949E-04
    879     (1,879)               3.68391321E-03
    880     (1,880)               7.81076144E-04
    881     (1,881)               7.81427572E-04
    882     (1,882)               2.57822399E-03
    883     (1,883)               7.63299559E-04
    884     (1,884)               1.29789862E-03
    885     (1,885)               1.69983379E-03
    886     (1,886)               1.29710270E-03
    887     (1,887)               2.14672480E-03
    888     (1,888)               2.21334694E-03
    889     (1,889)               3.91022673E-03
    890     (1,890)               7.61991892E-04
    891     (1,891)               2.00061915E-03
    892     (1,892)               7.63149455E-04
    893     (1,893)               7.62628564E-04
    894     (1,894)               1.99971808E-03
    895     (1,895)               3.68588695E-03
    896     (1,896)               3.68108566E-03
    897     (1,897)               3.68786210E-03
    898     (1,898)               3.18932384E-03
    899     (1,899)               2.90759267E-03
    900     (1,900)               6.18890461E-03
    901     (1,901)               7.57590754E-04
    902     (1,902)               3.65885412E-03
    903     (1,903)               3.66035832E-03
    904     (1,904)               7.33261022E-03
    905     (1,905)               7.58108363E-04
    906     (1,906)               2.09901644E-03
    907     (1,907)               3.72019241E-02
    908     (1,908)               7.58272978E-04
    909     (1,909)               4.73097864E-03
    910     (1,910)               2.88758928E-03
    911     (1,911)               2.53397127E-03
    912     (1,912)               2.82964942E-03
    913     (1,913)               7.42755468E-04
    914     (1,914)               2.80777196E-03
    915     (1,915)               8.80803625E-04
    916     (1,916)               6.16758025E-04
    917     (1,917)               2.53534906E-03
    918     (1,918)               1.79324596E-03
    919     (1,919)               1.84363884E-03
    920     (1,920)               6.65828698E-04
    921     (1,921)               7.35686568E-03
    922     (1,922)               2.41029200E-03
    923     (1,923)               2.20219973E-03
    924     (1,924)               9.95858049E-04
    925     (1,925)               1.31851438E-03
    926     (1,926)               1.14263348E-03
    927     (1,927)               2.90122968E-03
    928     (1,928)               1.67573064E-03
    929     (1,929)               7.61770886E-04
    930     (1,930)               3.96162821E-03
    931     (1,931)               3.67931672E-03
    932     (1,932)               1.14222399E-03
    933     (1,933)               1.29190226E-03
    934     (1,934)               2.80270664E-03
    935     (1,935)               1.14176620E-03
    936     (1,936)               8.36150370E-04
    937     (1,937)               5.39087963E-03
    938     (1,938)               2.65179429E-03
    939     (1,939)               6.13618857E-03
    940     (1,940)               3.21803386E-03
    941     (1,941)               1.26267955E-03
    942     (1,942)               1.84825708E-03
    943     (1,943)               2.90370972E-03
    944     (1,944)               7.38272873E-03
    945     (1,945)               2.89456501E-03
    946     (1,946)               3.28079523E-03
    947     (1,947)               2.55716194E-03
    948     (1,948)               3.38977420E-03
    949     (1,949)               1.64710420E-04
    950     (1,950)               2.38250757E-03
    951     (1,951)               5.46097650E-04
    952     (1,952)               0.0000000     
    953     (1,953)               1.01175381E-03
    954     (1,954)               8.90789167E-06
    955     (1,955)               2.41900899E-04
    956     (1,956)               6.89433676E-04
    957     (1,957)               1.44696699E-04
    958     (1,958)               9.32711170E-04
    959     (1,959)               6.83084621E-03
    960     (1,960)               1.11313036E-03
    961     (1,961)               5.30951910E-04
    962     (1,962)               8.28161406E-07
    963     (1,963)               1.33293021E-06
    964     (1,964)               0.0000000     
    965     (1,965)               8.12271645E-02
    966     (1,966)               1.14512799E-02
    967     (1,967)               1.19736726E-02
    968     (1,968)               0.0000000     
    969     (1,969)               6.38706532E-02
    970     (1,970)               2.97293624E-04
    971     (1,971)               7.16008943E-03
    972     (1,972)               0.0000000     
    973     (1,973)               1.06959725E-03
    974     (1,974)               2.30084522E-03
    975     (1,975)               5.08859880E-03
    976     (1,976)               2.33230809E-03
    977     (1,977)               5.39208078E-03
    978     (1,978)               3.79624470E-03
    979     (1,979)               1.15899051E-03
    980     (1,980)               5.60344866E-03
    981     (1,981)               3.04272555E-03
    982     (1,982)               3.15262488E-03
    983     (1,983)               3.60746954E-03
    984     (1,984)               4.07873865E-03
    985     (1,985)               2.48979114E-03
    986     (1,986)               1.09619466E-02
    987     (1,987)               9.17690456E-04
    988     (1,988)               1.94555907E-03
    989     (1,989)               2.83954942E-03
    990     (1,990)               1.31653740E-02
    991     (1,991)               2.49156004E-03
    992     (1,992)               2.79396198E-02
    993     (1,993)               2.77994408E-03
    994     (1,994)               0.10981697    
    995     (1,995)               5.97491548E-03
    996     (1,996)               2.35362125E-03
    997     (1,997)               7.20308699E-04
    998     (1,998)               0.12447827    
    999     (1,999)               7.21433431E-04
    1000    (1,1000)              4.40360921E-03
    1001    (1,1001)              3.48193383E-03
    1002    (1,1002)              7.00492255E-03
    1003    (1,1003)              2.43653252E-03
    1004    (1,1004)              3.48099228E-03
    1005    (1,1005)              2.75177019E-03
    1006    (1,1006)              2.21965708E-03
    1007    (1,1007)              7.14585759E-04
    1008    (1,1008)              6.93478704E-03
    1009    (1,1009)              7.15856694E-04
    1010    (1,1010)              2.00580867E-03
    1011    (1,1011)              3.45444934E-03
    1012    (1,1012)              2.25739368E-03
    1013    (1,1013)              7.16141114E-04
    1014    (1,1014)              3.45367492E-03
    1015    (1,1015)              4.92944252E-03
    1016    (1,1016)              6.91909706E-03
    1017    (1,1017)              5.79772155E-03
    1018    (1,1018)              3.96723586E-02
    1019    (1,1019)              5.06200159E-03
    1020    (1,1020)              1.99523926E-03
    1021    (1,1021)              6.20037843E-03
    1022    (1,1022)              2.22491761E-03
    1023    (1,1023)              7.22904984E-04
    1024    (1,1024)              1.74630267E-03
    1025    (1,1025)              5.31227179E-03
    1026    (1,1026)              2.75708758E-03
    1027    (1,1027)              6.20121422E-03
    1028    (1,1028)              1.86856937E-03
    1029    (1,1029)              7.14848693E-04
    1030    (1,1030)              5.10507378E-03
    1031    (1,1031)              3.48957756E-03
    1032    (1,1032)              6.55825337E-03
    1033    (1,1033)              1.88156555E-03
    1034    (1,1034)              3.53204373E-03
    1035    (1,1035)              2.42338198E-03
    1036    (1,1036)              5.00946879E-03
    1037    (1,1037)              7.20621323E-04
    1038    (1,1038)              6.92603673E-03
    1039    (1,1039)              1.78690836E-02
    1040    (1,1040)              7.21736320E-04
    1041    (1,1041)              6.59439473E-03
    1042    (1,1042)              3.99391312E-03
    1043    (1,1043)              7.07699462E-03
    1044    (1,1044)              6.91505810E-03
    1045    (1,1045)              1.77603064E-03
    1046    (1,1046)              3.74034436E-03
    1047    (1,1047)              7.37616610E-04
    1048    (1,1048)              4.65412291E-03
    1049    (1,1049)              3.36131883E-04
    1050    (1,1050)              2.17046923E-03
    1051    (1,1051)              4.04709459E-04
    1052    (1,1052)              5.28516609E-04
    1053    (1,1053)              8.06403230E-03
    1054    (1,1054)              1.01424714E-03
    1055    (1,1055)              1.71765564E-03
    1056    (1,1056)              2.00114862E-03
    1057    (1,1057)              1.01396897E-03
    1058    (1,1058)              5.11567139E-03
    1059    (1,1059)              1.98756724E-04
    1060    (1,1060)              2.08036685E-03
    1061    (1,1061)              3.98444234E-04
    1062    (1,1062)              1.02446885E-03
    1063    (1,1063)              2.66284004E-04
    1064    (1,1064)              1.70312227E-03
    1065    (1,1065)              2.04312950E-03
    1066    (1,1066)              2.76648891E-03
    1067    (1,1067)              4.36986347E-04
    1068    (1,1068)              1.02031284E-04
    1069    (1,1069)              1.01855940E-03
    1070    (1,1070)              1.99461922E-03
    1071    (1,1071)              1.12841098E-03
    1072    (1,1072)              1.70369629E-03
    1073    (1,1073)              4.76059176E-03
    1074    (1,1074)              1.04422329E-03
    1075    (1,1075)              1.84863069E-03
    1076    (1,1076)              3.51347686E-03
    1077    (1,1077)              7.19445432E-04
    1078    (1,1078)              1.00869100E-03
    1079    (1,1079)              1.07916925E-03
    1080    (1,1080)              1.50254152E-03
    1081    (1,1081)              1.08072689E-03
    1082    (1,1082)              4.38094940E-03
    1083    (1,1083)              2.03510691E-03
    1084    (1,1084)              8.35812785E-04
    1085    (1,1085)              1.42990564E-03
    1086    (1,1086)              2.80023986E-03
    1087    (1,1087)              4.30352723E-03
    1088    (1,1088)              3.76911273E-03
    1089    (1,1089)              3.34611086E-04
    1090    (1,1090)              1.88512840E-03
    1091    (1,1091)              2.98401149E-04
    1092    (1,1092)              2.79396117E-03
    1093    (1,1093)              1.00848521E-03
    1094    (1,1094)              5.86753426E-04
    1095    (1,1095)              1.22105762E-03
    1096    (1,1096)              2.00417160E-03
    1097    (1,1097)              9.63892072E-04
    1098    (1,1098)              5.94409336E-03
    1099    (1,1099)              3.30047957E-02
    1100    (1,1100)              2.61578299E-04
    1101    (1,1101)              4.49620054E-04
    1102    (1,1102)              9.37979305E-04
    1103    (1,1103)              3.06065266E-04
    1104    (1,1104)              3.98701608E-04
    1105    (1,1105)              7.48940732E-04
    1106    (1,1106)              7.10388119E-04
    1107    (1,1107)              2.32417022E-03
    1108    (1,1108)              1.10366040E-04
    1109    (1,1109)              4.39478115E-04
    1110    (1,1110)              1.17517251E-03
    1111    (1,1111)              4.73499560E-04
    1112    (1,1112)              9.18632959E-04
    1113    (1,1113)              2.75794431E-03
    1114    (1,1114)              7.05345300E-03
    1115    (1,1115)              1.21253969E-03
    1116    (1,1116)              2.71302290E-02
    1117    (1,1117)              1.63171641E-03
    1118    (1,1118)              1.12007103E-03
    1119    (1,1119)              5.22508780E-03
    1120    (1,1120)              1.75459352E-02
    1121    (1,1121)              1.25413126E-03
    1122    (1,1122)              2.78873471E-03
    1123    (1,1123)              8.68842615E-04
    1124    (1,1124)              7.75301679E-04
    1125    (1,1125)              1.87838040E-03
    1126    (1,1126)              6.47276499E-04
    1127    (1,1127)              2.47428703E-03
    1128    (1,1128)              2.92890945E-02
    1129    (1,1129)              4.21904920E-03
    1130    (1,1130)              1.89959140E-03
    1131    (1,1131)              2.03863972E-03
    1132    (1,1132)              4.56691179E-04
    1133    (1,1133)              2.21237570E-03
    1134    (1,1134)              6.50690070E-03
    1135    (1,1135)              2.16280940E-03
    1136    (1,1136)              1.86705686E-03
    1137    (1,1137)              4.37687852E-03
    1138    (1,1138)              3.01344749E-03
    1139    (1,1139)              1.78148451E-03
    1140    (1,1140)              1.06821656E-03
    1141    (1,1141)              2.09245747E-03
    1142    (1,1142)              4.95941866E-03
    1143    (1,1143)              7.64774785E-04
    1144    (1,1144)              8.47029497E-04
    1145    (1,1145)              7.65507530E-04
    1146    (1,1146)              2.21793332E-02
    1147    (1,1147)              6.33331662E-03
    1148    (1,1148)              3.69297649E-03
    1149    (1,1149)              1.70020459E-03
    1150    (1,1150)              3.69506497E-03
    1151    (1,1151)              7.63824453E-04
    1152    (1,1152)              6.98478678E-04
    1153    (1,1153)              1.22146886E-03
    1154    (1,1154)              1.69512078E-03
    1155    (1,1155)              7.64597244E-04
    1156    (1,1156)              6.98545371E-04
    1157    (1,1157)              6.25214514E-03
    1158    (1,1158)              8.47505252E-04
    1159    (1,1159)              7.65328266E-04
    1160    (1,1160)              7.42758774E-03
    1161    (1,1161)              2.91779435E-03
    1162    (1,1162)              3.16903344E-03
    1163    (1,1163)              2.93954351E-03
    1164    (1,1164)              2.93697454E-03
    1165    (1,1165)              7.74812915E-04
    1166    (1,1166)              2.94975247E-03
    1167    (1,1167)              7.74710416E-04
    1168    (1,1168)              3.74160500E-03
    1169    (1,1169)              3.74370198E-03
    1170    (1,1170)              2.94913717E-03
    1171    (1,1171)              7.50633858E-03
    1172    (1,1172)              2.38718785E-03
    1173    (1,1173)              2.68080684E-03
    1174    (1,1174)              2.71908289E-03
    1175    (1,1175)              2.63139645E-03
    1176    (1,1176)              4.09178074E-03
    1177    (1,1177)              2.63271017E-03
    1178    (1,1178)              5.42167125E-03
    1179    (1,1179)              2.25826711E-03
    1180    (1,1180)              1.86188822E-03
    1181    (1,1181)              7.71104156E-04
    1182    (1,1182)              1.86044218E-03
    1183    (1,1183)              7.50776629E-03
    1184    (1,1184)              1.62806986E-03
    1185    (1,1185)              1.22004343E-02
    1186    (1,1186)              6.28584716E-03
    1187    (1,1187)              1.35899515E-03
    1188    (1,1188)              3.51738213E-03
    1189    (1,1189)              8.51314347E-04
    1190    (1,1190)              2.04287637E-03
    1191    (1,1191)              1.17647286E-03
    1192    (1,1192)              2.26530670E-03
    1193    (1,1193)              1.55837684E-03
    1194    (1,1194)              1.43332190E-03
    1195    (1,1195)              4.16229513E-03
    1196    (1,1196)              1.36495656E-03
    1197    (1,1197)              4.46752005E-03
    1198    (1,1198)              1.60697410E-03
    1199    (1,1199)              1.72008209E-03
    1200    (1,1200)              7.39841817E-03
    1201    (1,1201)              1.04747536E-03
    1202    (1,1202)              2.36138137E-03
    1203    (1,1203)              3.34479530E-03
    1204    (1,1204)              2.23740365E-03
    1205    (1,1205)              9.50886882E-04
    1206    (1,1206)              9.55434270E-04
    1207    (1,1207)              2.49557120E-03
    1208    (1,1208)              7.62385986E-04
    1209    (1,1209)              2.54943118E-03
    1210    (1,1210)              1.95601437E-03
    1211    (1,1211)              2.08718707E-03
    1212    (1,1212)              4.93838864E-03
    1213    (1,1213)              1.86166368E-03
    1214    (1,1214)              2.08778133E-03
    1215    (1,1215)              4.14742279E-03
    1216    (1,1216)              7.70988010E-04
    1217    (1,1217)              4.26674369E-03
    1218    (1,1218)              2.63245041E-03
    1219    (1,1219)              2.91698314E-03
    1220    (1,1220)              2.51747873E-03
    1221    (1,1221)              3.28135223E-03
    1222    (1,1222)              2.09053662E-03
    1223    (1,1223)              7.70269195E-04
    1224    (1,1224)              1.86033148E-03
    1225    (1,1225)              2.90221203E-03
    1226    (1,1226)              4.27159246E-03
    1227    (1,1227)              2.63098008E-03
    1228    (1,1228)              1.48553793E-03
    1229    (1,1229)              2.20108586E-03
    1230    (1,1230)              1.96468551E-03
    1231    (1,1231)              7.70737823E-04
    1232    (1,1232)              1.54066421E-03
    1233    (1,1233)              4.90695711E-03
    1234    (1,1234)              7.64022416E-04
    1235    (1,1235)              7.83120554E-04
    1236    (1,1236)              9.17102432E-03
    1237    (1,1237)              2.82838973E-03
    1238    (1,1238)              7.83803740E-04
    1239    (1,1239)              3.47620005E-03
    1240    (1,1240)              2.43627975E-03
    1241    (1,1241)              3.42432059E-03
    1242    (1,1242)              1.92419662E-03
    1243    (1,1243)              2.78884356E-03
    1244    (1,1244)              3.78383641E-03
    1245    (1,1245)              4.76867742E-03
    1246    (1,1246)              1.87790566E-03
    1247    (1,1247)              7.83888198E-04
    1248    (1,1248)              2.02679464E-03
    1249    (1,1249)              1.69413863E-03
    1250    (1,1250)              3.78597168E-03
    1251    (1,1251)              7.91876864E-04
    1252    (1,1252)              7.84712878E-04
    1253    (1,1253)              1.27875359E-03
    1254    (1,1254)              2.87888764E-03
    1255    (1,1255)              2.65218067E-03
    1256    (1,1256)              2.88599774E-03
    1257    (1,1257)              3.18994641E-03
    1258    (1,1258)              2.40827236E-03
    1259    (1,1259)              9.31407074E-04
    1260    (1,1260)              2.96219951E-03
    1261    (1,1261)              8.02488173E-04
    1262    (1,1262)              1.55518369E-03
    1263    (1,1263)              8.31701876E-04
    1264    (1,1264)              1.91704619E-03
    1265    (1,1265)              7.79956692E-03
    1266    (1,1266)              4.00916402E-03
    1267    (1,1267)              4.66814705E-03
    1268    (1,1268)              1.78579516E-03
    1269    (1,1269)              8.00556482E-04
    1270    (1,1270)              5.21565724E-03
    1271    (1,1271)              7.82101519E-03
    1272    (1,1272)              3.16684134E-03
    1273    (1,1273)              8.31793734E-04
    1274    (1,1274)              3.06383436E-03
    1275    (1,1275)              3.86204956E-03
    1276    (1,1276)              7.93214394E-04
    1277    (1,1277)              8.04576632E-03
    1278    (1,1278)              2.03703875E-03
    1279    (1,1279)              6.52608273E-04
    1280    (1,1280)              8.10537717E-03
    1281    (1,1281)              8.09914016E-04
    1282    (1,1282)              3.21180668E-03
    1283    (1,1283)              4.79920547E-03
    1284    (1,1284)              9.61089956E-04
    1285    (1,1285)              8.10974865E-05
    1286    (1,1286)              9.67482894E-04
    1287    (1,1287)              1.78398865E-04
    1288    (1,1288)              4.75005493E-04
    1289    (1,1289)              1.81569845E-03
    1290    (1,1290)              1.42764208E-03
    1291    (1,1291)              7.75487141E-04
    1292    (1,1292)              2.50352896E-03
    1293    (1,1293)              3.21293123E-03
    1294    (1,1294)              7.75496130E-04
    1295    (1,1295)              3.91659180E-04
    1296    (1,1296)              2.50512081E-03
    1297    (1,1297)              4.24092218E-03
    1298    (1,1298)              1.81900365E-03
    1299    (1,1299)              1.30660664E-03
    1300    (1,1300)              6.55743321E-03
    1301    (1,1301)              1.30932215E-03
    1302    (1,1302)              1.79738678E-03
    1303    (1,1303)              1.89055491E-03
    1304    (1,1304)              2.98840433E-03
    1305    (1,1305)              4.16148909E-03
    1306    (1,1306)              1.43021623E-03
    1307    (1,1307)              3.82759019E-03
    1308    (1,1308)              4.69203700E-03
    1309    (1,1309)              6.49999250E-03
    1310    (1,1310)              3.01353542E-03
    1311    (1,1311)              3.83157116E-03
    1312    (1,1312)              7.94445036E-04
    1313    (1,1313)              4.75429560E-04
    1314    (1,1314)              1.78458565E-04
    1315    (1,1315)              4.14039785E-03
    1316    (1,1316)              8.10829604E-05
    1317    (1,1317)              3.61125379E-03
    1318    (1,1318)              2.46426465E-03
    1319    (1,1319)              7.92970622E-04
    1320    (1,1320)              1.78972124E-03
    1321    (1,1321)              8.10881930E-04
    1322    (1,1322)              9.68401629E-04
    1323    (1,1323)              2.68932144E-03
    1324    (1,1324)              9.63079527E-04
    1325    (1,1325)              3.91944531E-04
    1326    (1,1326)              3.20459641E-03
    1327    (1,1327)              1.79593016E-03
    1328    (1,1328)              4.78991271E-02
    1329    (1,1329)              1.58823846E-03
    1330    (1,1330)              7.28126501E-03
    1331    (1,1331)              7.50071799E-04
    1332    (1,1332)              7.27470970E-03
    1333    (1,1333)              2.78987006E-03
    1334    (1,1334)              7.50703336E-04
    1335    (1,1335)              5.56242486E-04
    1336    (1,1336)              1.29481950E-03
    1337    (1,1337)              1.15095455E-03
    1338    (1,1338)              6.55334116E-04
    1339    (1,1339)              2.02954603E-03
    1340    (1,1340)              3.62307607E-03
    1341    (1,1341)              5.82098339E-04
    1342    (1,1342)              7.49674568E-04
    1343    (1,1343)              6.58876621E-04
    1344    (1,1344)              2.90755986E-03
    1345    (1,1345)              1.25247825E-03
    1346    (1,1346)              5.43375139E-04
    1347    (1,1347)              3.62131529E-03
    1348    (1,1348)              6.93590367E-04
    1349    (1,1349)              7.50288727E-04
    1350    (1,1350)              1.22633504E-03
    1351    (1,1351)              1.19780520E-03
    1352    (1,1352)              7.59109913E-03
    1353    (1,1353)              9.72968197E-04
    1354    (1,1354)              1.69811321E-03
    1355    (1,1355)              1.80677166E-03
    1356    (1,1356)              9.97555710E-04
    1357    (1,1357)              1.15384397E-03
    1358    (1,1358)              6.19849689E-03
    1359    (1,1359)              1.15431894E-03
    1360    (1,1360)              3.01974580E-03
    1361    (1,1361)              8.83699981E-03
    1362    (1,1362)              1.28647174E-03
    1363    (1,1363)              1.40019822E-03
    1364    (1,1364)              1.15053331E-03
    1365    (1,1365)              1.28213076E-03
    1366    (1,1366)              1.65497910E-03
    1367    (1,1367)              2.43317000E-03
    1368    (1,1368)              2.18420373E-03
    1369    (1,1369)              1.99116762E-03
    1370    (1,1370)              1.71679403E-03
    1371    (1,1371)              2.20495294E-03
    1372    (1,1372)              2.67205684E-03
    1373    (1,1373)              7.33588670E-03
    1374    (1,1374)              1.93401198E-03
    1375    (1,1375)              2.20837622E-03
    1376    (1,1376)              5.68564801E-03
    1377    (1,1377)              1.97926526E-03
    1378    (1,1378)              2.30824860E-03
    1379    (1,1379)              1.27640245E-03
    1380    (1,1380)              1.82409381E-03
    1381    (1,1381)              1.14459340E-03
    1382    (1,1382)              1.08187238E-03
    1383    (1,1383)              1.61568248E-03
    1384    (1,1384)              1.29472108E-03
    1385    (1,1385)              3.12553782E-03
    1386    (1,1386)              1.39233936E-03
    1387    (1,1387)              1.42965517E-03
    1388    (1,1388)              6.92026261E-04
    1389    (1,1389)              7.41167424E-04
    1390    (1,1390)              8.89955198E-04
    1391    (1,1391)              1.40022648E-03
    1392    (1,1392)              2.71206427E-03
    1393    (1,1393)              6.83972629E-04
    1394    (1,1394)              2.28299760E-03
    1395    (1,1395)              2.81930676E-03
    1396    (1,1396)              2.62977179E-03
    1397    (1,1397)              3.59867955E-03
    1398    (1,1398)              3.02600432E-03
    1399    (1,1399)              1.04627984E-03
    1400    (1,1400)              4.17582396E-03
    1401    (1,1401)              2.09530677E-03
    1402    (1,1402)              1.14406305E-03
    1403    (1,1403)              1.45194097E-03
    1404    (1,1404)              1.82809746E-03
    1405    (1,1405)              5.74737641E-03
    1406    (1,1406)              5.01799285E-03
    1407    (1,1407)              7.45884216E-03
    1408    (1,1408)              5.91723086E-03
    1409    (1,1409)              6.81487059E-04
    1410    (1,1410)              1.14255063E-03
    1411    (1,1411)              7.78112329E-04
    1412    (1,1412)              4.78962158E-03
    1413    (1,1413)              1.49059580E-03
    1414    (1,1414)              6.55596273E-03
    1415    (1,1415)              9.70596954E-03
    1416    (1,1416)              1.49111674E-03
    1417    (1,1417)              1.07198974E-03
    1418    (1,1418)              1.07292591E-03
    1419    (1,1419)              1.40056768E-02
    1420    (1,1420)              1.26915247E-03
    1421    (1,1421)              3.24988196E-03
    1422    (1,1422)              1.87545817E-03
    1423    (1,1423)              1.20489984E-03
    1424    (1,1424)              2.13516898E-03
    1425    (1,1425)              2.11539439E-03
    1426    (1,1426)              4.27365218E-03
    1427    (1,1427)              3.56890293E-03
    1428    (1,1428)              2.91520931E-03
    1429    (1,1429)              2.35051263E-03
    1430    (1,1430)              2.66125325E-03
    1431    (1,1431)              2.15213055E-03
    1432    (1,1432)              7.17929533E-04
    1433    (1,1433)              4.94818796E-03
    1434    (1,1434)              2.07564524E-03
    1435    (1,1435)              3.68082462E-03
    1436    (1,1436)              1.36113367E-03
    1437    (1,1437)              1.15364136E-03
    1438    (1,1438)              2.00410204E-03
    1439    (1,1439)              7.95052920E-04
    1440    (1,1440)              3.14804289E-04
    1441    (1,1441)              1.13050199E-04
    1442    (1,1442)              2.36929623E-03
    1443    (1,1443)              1.36851760E-03
    1444    (1,1444)              2.05136737E-03
    1445    (1,1445)              1.93804302E-03
    1446    (1,1446)              1.15415491E-03
    1447    (1,1447)              9.49980304E-04
    1448    (1,1448)              1.57897268E-03
    1449    (1,1449)              2.34763979E-03
    1450    (1,1450)              4.30261147E-03
    1451    (1,1451)              3.44588993E-03
    1452    (1,1452)              3.50119526E-03
    1453    (1,1453)              2.38353147E-03
    1454    (1,1454)              2.67907425E-03
    1455    (1,1455)              6.68587138E-03
[...]
   24906    (1,24906)             0.24146023    
   24907    (1,24907)             0.22029605    
   24908    (1,24908)             0.24866154    
   24909    (1,24909)             0.18272406    
   24910    (1,24910)             0.12918705    
   24911    (1,24911)             0.18323320    
   24912    (1,24912)             0.17517777    
   24913    (1,24913)             0.23686148    
   24914    (1,24914)             0.24567018    
   24915    (1,24915)             0.18887638    
   24916    (1,24916)             0.30077246    
   24917    (1,24917)             0.17139232    
   24918    (1,24918)             0.17882803    
   24919    (1,24919)             0.30224171    
   24920    (1,24920)             0.29609568    
   24921    (1,24921)             0.21559951    
   24922    (1,24922)             0.21151371    
   24923    (1,24923)             0.25151633    
   24924    (1,24924)             0.24577283    
   24925    (1,24925)             0.19797957    
   24926    (1,24926)             0.23019991    
   24927    (1,24927)             0.15702785    
   24928    (1,24928)             0.19725981    
   24929    (1,24929)             0.19101374    
   24930    (1,24930)             0.22341308    
   24931    (1,24931)             0.21272842    
   24932    (1,24932)             0.22495862    
   24933    (1,24933)             0.31147022    
   24934    (1,24934)             0.15913544    
   24935    (1,24935)             0.14449936    
   24936    (1,24936)             0.13707578    
   24937    (1,24937)             0.24334861    
   24938    (1,24938)             0.18167010    
   24939    (1,24939)             0.16259270    
   24940    (1,24940)             0.24308523    
   24941    (1,24941)             0.23965549    
   24942    (1,24942)             2.08251235E-02
   24943    (1,24943)             2.81731237E-02
   24944    (1,24944)             0.22492575    
   24945    (1,24945)             0.23201272    
   24946    (1,24946)             0.18973919    
   24947    (1,24947)             0.26816641    
   24948    (1,24948)             0.15499315    
   24949    (1,24949)             0.18894999    
   24950    (1,24950)             0.21955434    
   24951    (1,24951)             0.18824425    
   24952    (1,24952)             0.19063658    
   24953    (1,24953)             0.18486145    
   24954    (1,24954)             0.15922553    
   24955    (1,24955)             0.18895330    
   24956    (1,24956)             0.26010743    
   24957    (1,24957)             0.16018828    
   24958    (1,24958)             0.16397970    
   24959    (1,24959)             0.19332487    
   24960    (1,24960)             0.15840617    
   24961    (1,24961)             0.20796788    
   24962    (1,24962)             0.16444534    
   24963    (1,24963)             0.24915120    
   24964    (1,24964)             0.22261226    
   24965    (1,24965)             0.22442089    
   24966    (1,24966)             0.16034587    
   24967    (1,24967)             0.20409299    
   24968    (1,24968)             0.16853118    
   24969    (1,24969)             0.23562005    
   24970    (1,24970)             0.17376436    
   24971    (1,24971)             0.19440444    
   24972    (1,24972)             0.22977807    
   24973    (1,24973)             0.16320216    
   24974    (1,24974)             0.16352699    
   24975    (1,24975)             0.15674509    
   24976    (1,24976)             0.18304340    
   24977    (1,24977)             0.15335840    
   24978    (1,24978)             0.21558593    
   24979    (1,24979)             0.21657773    
   24980    (1,24980)             0.23542139    
   24981    (1,24981)             0.27535812    
   24982    (1,24982)             0.27323717    
   24983    (1,24983)             0.19314829    
   24984    (1,24984)             0.19678123    
   24985    (1,24985)             0.16720673    
   24986    (1,24986)             0.18651516    
   24987    (1,24987)             0.33974840    
   24988    (1,24988)             0.21619401    
   24989    (1,24989)             0.23170070    
   24990    (1,24990)             0.17713988    
   24991    (1,24991)             0.19053616    
   24992    (1,24992)             0.17144906    
   24993    (1,24993)             0.25702867    
   24994    (1,24994)             0.25680296    
   24995    (1,24995)             0.15825381    
   24996    (1,24996)             0.28688296    
   24997    (1,24997)             0.19952442    
   24998    (1,24998)             0.12370164    
   24999    (1,24999)             0.14865056    
   25000    (1,25000)             0.18827075    
   25001    (1,25001)             0.20110416    
   25002    (1,25002)             0.33464424    
   25003    (1,25003)             0.33186525    
   25004    (1,25004)             0.34281953    
   25005    (1,25005)             0.23013851    
   25006    (1,25006)             0.29024541    
   25007    (1,25007)             0.22459548    
   25008    (1,25008)             0.23779651    
   25009    (1,25009)             0.17911764    
   25010    (1,25010)             0.16763328    
   25011    (1,25011)             0.16417426    
   25012    (1,25012)             0.17994624    
   25013    (1,25013)             0.17664050    
   25014    (1,25014)             0.15705895    
   25015    (1,25015)             0.27351928    
   25016    (1,25016)             0.20427321    
   25017    (1,25017)             0.23194172    
   25018    (1,25018)             0.14821858    
   25019    (1,25019)             0.17801097    
   25020    (1,25020)             0.27556830    
   25021    (1,25021)             0.23339029    
   25022    (1,25022)             0.18666653    
   25023    (1,25023)             1.76596261E-02
   25024    (1,25024)             2.77931431E-02
   25025    (1,25025)             2.06552383E-02
   25026    (1,25026)             1.63293260E-02
   25027    (1,25027)             1.56580851E-02
   25028    (1,25028)             1.79442655E-02
   25029    (1,25029)             0.24467519    
   25030    (1,25030)             1.79320148E-02
   25031    (1,25031)             0.31680604    
   25032    (1,25032)             0.16270172    
   25033    (1,25033)             2.07673342E-02
   25034    (1,25034)             2.86560998E-02
   25035    (1,25035)             0.27520140    
   25036    (1,25036)             0.21088197    
   25037    (1,25037)             0.16619166    
   25038    (1,25038)             0.22472394    
   25039    (1,25039)             2.60433870E-02
   25040    (1,25040)             0.24384220    
   25041    (1,25041)             1.98011183E-02
   25042    (1,25042)             1.81586815E-02
   25043    (1,25043)             1.53007370E-02
   25044    (1,25044)             0.18850947    
   25045    (1,25045)             0.15279194    
   25046    (1,25046)             0.20182249    
   25047    (1,25047)             0.28504120    
   25048    (1,25048)             0.25542677    
   25049    (1,25049)             0.19266905    
   25050    (1,25050)             0.19111517    
   25051    (1,25051)             0.25876768    
   25052    (1,25052)             0.20043551    
   25053    (1,25053)             0.16006226    
   25054    (1,25054)             0.16549318    
   25055    (1,25055)             0.16574850    
   25056    (1,25056)             0.13447211    
   25057    (1,25057)             0.22979826    
   25058    (1,25058)             0.17652002    
   25059    (1,25059)             0.24379075    
   25060    (1,25060)             0.17133676    
   25061    (1,25061)             0.28561526    
   25062    (1,25062)             0.13466723    
   25063    (1,25063)             0.13537683    
   25064    (1,25064)             0.17223303    
   25065    (1,25065)             0.17244950    
   25066    (1,25066)             0.18569087    
   25067    (1,25067)             0.15230475    
   25068    (1,25068)             0.18065799    
   25069    (1,25069)             0.20325701    
   25070    (1,25070)             0.15624444    
   25071    (1,25071)             0.17844567    
   25072    (1,25072)             0.27560444    
   25073    (1,25073)             0.15722501    
   25074    (1,25074)             0.18742015    
   25075    (1,25075)             0.24554972    
   25076    (1,25076)             0.19755756    
   25077    (1,25077)             0.26305172    
   25078    (1,25078)             0.30204906    
   25079    (1,25079)             0.25806227    
   25080    (1,25080)             0.19063745    
   25081    (1,25081)             0.12723188    
   25082    (1,25082)             0.29805199    
   25083    (1,25083)             0.21052880    
   25084    (1,25084)             0.24417578    
   25085    (1,25085)             0.22213448    
   25086    (1,25086)             0.26333923    
   25087    (1,25087)             0.18113191    
   25088    (1,25088)             0.19498847    
   25089    (1,25089)             0.19032366    
   25090    (1,25090)             0.25678647    
   25091    (1,25091)             0.19607957    
   25092    (1,25092)             0.21934297    
   25093    (1,25093)             0.23124605    
   25094    (1,25094)             0.23700381    
   25095    (1,25095)             0.33467573    
   25096    (1,25096)             3.27201258E-02
   25097    (1,25097)             1.81694174E-02
   25098    (1,25098)             3.23452573E-02
   25099    (1,25099)             1.86655522E-02
   25100    (1,25100)             2.57250951E-02
   25101    (1,25101)             0.25932398    
   25102    (1,25102)             1.99856867E-02
   25103    (1,25103)             1.97852284E-02
   25104    (1,25104)             1.90838390E-02
   25105    (1,25105)             2.14442417E-02
   25106    (1,25106)             1.86814580E-02
   25107    (1,25107)             1.94791827E-02
   25108    (1,25108)             2.28039653E-02
   25109    (1,25109)             2.58957048E-02
   25110    (1,25110)             1.40273033E-02
   25111    (1,25111)             1.69708354E-02
   25112    (1,25112)             1.97988328E-02
   25113    (1,25113)             1.95798927E-02
   25114    (1,25114)             2.58071123E-02
   25115    (1,25115)             2.42437741E-02
   25116    (1,25116)             2.51682421E-02
   25117    (1,25117)             2.36066691E-02
   25118    (1,25118)             2.29723914E-02
   25119    (1,25119)             3.19050913E-02
   25120    (1,25120)             3.15147508E-02
   25121    (1,25121)             1.97777996E-02
   25122    (1,25122)             2.04821824E-02
   25123    (1,25123)             2.40922372E-02
   25124    (1,25124)             2.02428922E-02
   25125    (1,25125)             2.58489869E-02
   25126    (1,25126)             2.97392896E-02
   25127    (1,25127)             2.51122315E-02
   25128    (1,25128)             2.59414320E-02
   25129    (1,25129)             1.58095424E-02
   25130    (1,25130)             3.25567824E-02
   25131    (1,25131)             2.89591841E-02
   25132    (1,25132)             2.07547634E-02
   25133    (1,25133)             1.66993349E-02
   25134    (1,25134)             1.82234976E-02
   25135    (1,25135)             1.89315587E-02
   25136    (1,25136)             1.86886323E-02
   25137    (1,25137)             2.17555871E-02
   25138    (1,25138)             1.97208505E-02
   25139    (1,25139)             1.70227193E-02
   25140    (1,25140)             2.46715768E-02
   25141    (1,25141)             1.95558766E-02
   25142    (1,25142)             1.88250204E-02
   25143    (1,25143)             3.33504893E-02
   25144    (1,25144)             3.20402093E-02
   25145    (1,25145)             1.95462156E-02
   25146    (1,25146)             1.85063972E-02
   25147    (1,25147)             2.54152712E-02
   25148    (1,25148)             2.47237504E-02
   25149    (1,25149)             1.70736817E-02
   25150    (1,25150)             3.01716205E-02
   25151    (1,25151)             1.94121255E-02
   25152    (1,25152)             2.72775641E-02
   25153    (1,25153)             2.34356912E-02
   25154    (1,25154)             2.66024269E-02
   25155    (1,25155)             1.92285867E-02
   25156    (1,25156)             2.06145525E-02
   25157    (1,25157)             1.77723000E-02
   25158    (1,25158)             1.60900796E-02
   25159    (1,25159)             2.38960425E-02
   25160    (1,25160)             2.62673190E-02
   25161    (1,25161)             2.68950976E-02
   25162    (1,25162)             1.91644593E-02
   25163    (1,25163)             3.13603990E-02
   25164    (1,25164)             1.58176556E-02
   25165    (1,25165)             2.43369182E-02
   25166    (1,25166)             0.26733542    
   25167    (1,25167)             0.18188163    
   25168    (1,25168)             2.38040978E-02
   25169    (1,25169)             1.86187466E-02
   25170    (1,25170)             2.69504242E-02
   25171    (1,25171)             1.53511555E-02
   25172    (1,25172)             2.33077431E-02
   25173    (1,25173)             2.21666221E-02
   25174    (1,25174)             1.59912138E-02
   25175    (1,25175)             1.44017547E-02
   25176    (1,25176)             0.24696605    
   25177    (1,25177)             0.21303817    
   25178    (1,25178)             0.15821282    
   25179    (1,25179)             0.19615402    
   25180    (1,25180)             0.20092682    
   25181    (1,25181)             0.27443298    
   25182    (1,25182)             0.18975150    
   25183    (1,25183)             0.26222870    
   25184    (1,25184)             0.19371079    
   25185    (1,25185)             0.15066545    
   25186    (1,25186)             0.27287375    
   25187    (1,25187)             0.17382569    
   25188    (1,25188)             0.13626067    
   25189    (1,25189)             0.13993666    
   25190    (1,25190)             0.15254424    
   25191    (1,25191)             0.13733779    
   25192    (1,25192)             0.29632668    
   25193    (1,25193)             0.16667426    
   25194    (1,25194)             0.16047310    
   25195    (1,25195)             0.16164273    
   25196    (1,25196)             0.18437496    
   25197    (1,25197)             0.19108886    
   25198    (1,25198)             0.20077294    
   25199    (1,25199)             0.16895812    
   25200    (1,25200)             0.20190909    
   25201    (1,25201)             0.17318137    
   25202    (1,25202)             0.27859904    
   25203    (1,25203)             0.27071669    
   25204    (1,25204)             1.92150181E-02
   25205    (1,25205)             0.20315087    
   25206    (1,25206)             0.15702106    
   25207    (1,25207)             0.14095108    
   25208    (1,25208)             0.19825611    
   25209    (1,25209)             0.15690730    
   25210    (1,25210)             0.15741064    
   25211    (1,25211)             0.15792037    
   25212    (1,25212)             0.29772290    
   25213    (1,25213)             0.16586548    
   25214    (1,25214)             0.27564253    
   25215    (1,25215)             0.31373040    
   25216    (1,25216)             0.18234201    
   25217    (1,25217)             0.22866149    
   25218    (1,25218)             0.12681195    
   25219    (1,25219)             0.17866120    
   25220    (1,25220)             0.17521294    
   25221    (1,25221)             0.17827527    
   25222    (1,25222)             0.24649402    
   25223    (1,25223)             0.21222927    
   25224    (1,25224)             0.18926127    
   25225    (1,25225)             2.67726883E-02
   25226    (1,25226)             3.45462279E-02
   25227    (1,25227)             1.69470820E-02
   25228    (1,25228)             3.21521836E-02
   25229    (1,25229)             3.24928915E-02
   25230    (1,25230)             1.73784647E-02
   25231    (1,25231)             2.22990984E-02
   25232    (1,25232)             2.41747202E-02
   25233    (1,25233)             2.43679294E-02
   25234    (1,25234)             0.28332793    
   25235    (1,25235)             3.27573865E-02
   25236    (1,25236)             2.74444386E-02
   25237    (1,25237)             1.96434572E-02
   25238    (1,25238)             2.06113150E-02
   25239    (1,25239)             0.22642126    
   25240    (1,25240)             0.11564103    
   25241    (1,25241)             0.11978733    
   25242    (1,25242)             0.11196529    
   25243    (1,25243)             0.15388260    
   25244    (1,25244)             0.28304347    
   25245    (1,25245)             0.11226329    
   25246    (1,25246)             0.17220458    
   25247    (1,25247)             0.15280197    
   25248    (1,25248)             0.28214724    
   25249    (1,25249)             0.23473725    
   25250    (1,25250)             0.17400653    
   25251    (1,25251)             0.21465798    
   25252    (1,25252)             0.23381139    
   25253    (1,25253)             0.22940243    
   25254    (1,25254)             0.21654643    
   25255    (1,25255)             0.28030144    
   25256    (1,25256)             0.19817053    
   25257    (1,25257)             0.21450971    
   25258    (1,25258)             0.24738461    
   25259    (1,25259)             0.23111761    
   25260    (1,25260)             0.17940991    
   25261    (1,25261)             3.27135231E-02
   25262    (1,25262)             1.50553728E-02
 -----------------------------------------------




 HEAD WILL BE SAVED ON UNIT 1018 AT END OF TIME STEP    1, STRESS PERIOD    1


  VOLUME BUDGET FOR ENTIRE MODEL AT END OF TIME STEP    1, STRESS PERIOD   1
  ---------------------------------------------------------------------------------------------------

     CUMULATIVE VOLUME      L**3       RATES FOR THIS TIME STEP      L**3/T          PACKAGE NAME    
     ------------------                 ------------------------                     ----------------

           IN:                                      IN:
           ---                                      ---
                 WEL =           0.0000                   WEL =           0.0000     WELL_PACKAGE                     
                 RCH =         561.3850                   RCH =         561.3850     RCH                              
                 EVT =           0.0000                   EVT =           0.0000     EVT                              
                 CHD =           7.9187                   CHD =           7.9187     CHD                              

            TOTAL IN =         569.3037              TOTAL IN =         569.3037

          OUT:                                     OUT:
          ----                                     ----
                 WEL =          74.8080                   WEL =          74.8080     WELL_PACKAGE                     
                 RCH =           0.0000                   RCH =           0.0000     RCH                              
                 EVT =           7.6570                   EVT =           7.6570     EVT                              
                 CHD =         486.8494                   CHD =         486.8494     CHD                              

           TOTAL OUT =         569.3144             TOTAL OUT =         569.3144

            IN - OUT =      -1.0678E-02              IN - OUT =      -1.0678E-02

 PERCENT DISCREPANCY =          -0.00     PERCENT DISCREPANCY =          -0.00




         TIME SUMMARY AT END OF TIME STEP    1 IN STRESS PERIOD    1
                    SECONDS     MINUTES      HOURS       DAYS        YEARS
                    -----------------------------------------------------------
   TIME STEP LENGTH  1.0000     1.66667E-02 2.77778E-04 1.15741E-05 3.16881E-08
 STRESS PERIOD TIME  1.0000     1.66667E-02 2.77778E-04 1.15741E-05 3.16881E-08
         TOTAL TIME  1.0000     1.66667E-02 2.77778E-04 1.15741E-05 3.16881E-08


end timestep

