                                   MODFLOW 6
                U.S. GEOLOGICAL SURVEY MODULAR HYDROLOGIC MODEL
                          GROUNDWATER FLOW MODEL (GWF)
                            VERSION 6.6.0 12/20/2024

   MODFLOW 6 compiled Dec 31 2024 17:10:16 with Intel(R) Fortran Intel(R) 64
   Compiler Classic for applications running on Intel(R) 64, Version 2021.7.0
                             Build 20220726_000000

This software has been approved for release by the U.S. Geological 
Survey (USGS). Although the software has been subjected to rigorous 
review, the USGS reserves the right to update the software as needed 
pursuant to further analysis and review. No warranty, expressed or 
implied, is made by the USGS or the U.S. Government as to the 
functionality of the software and related material nor shall the 
fact of release constitute any such warranty. Furthermore, the 
software is released on condition that neither the USGS nor the U.S. 
Government shall be held liable for any damages resulting from its 
authorized or unauthorized use. Also refer to the USGS Water 
Resources Software User Rights Notice for complete use, copyright, 
and distribution information.


As a work of the United States Government, this USGS product is 
in the public domain within the United States. You can copy, 
modify, distribute, and perform the work, even for commercial 
purposes, all without asking permission. Additionally, USGS 
waives copyright and related rights in the work worldwide 
through CC0 1.0 Universal Public Domain Dedication 
(https://creativecommons.org/publicdomain/zero/1.0/).

The following GNU Lesser General Public License (LGPL) libraries
are used in this USGS product:

    SPARSKIT version 2.0
      ilut, luson, and qsplit 
      (https://www-users.cse.umn.edu/~saad/software/SPARSKIT/)

    RCM - Reverse Cuthill McKee Ordering
      (https://people.math.sc.edu/Burkardt/f_src/rcm/rcm.html)

    BLAS - Basic Linear Algebra Subprograms Level 1
      (https://people.math.sc.edu/Burkardt/f_src/blas1_d/blas1_d.html)

    SPARSEKIT - Sparse Matrix Utility Package
      amux, dperm, dvperm, rperm, and cperm
      (https://people.sc.fsu.edu/~jburkardt/f77_src/sparsekit/sparsekit.html)

The following BSD-3 License libraries are used in this USGS product:

    Modern Fortran DAG Library
      Copyright (c) 2018, Jacob Williams
      All rights reserved.
      (https://github.com/jacobwilliams/daglib)

MODFLOW 6 compiler options: /O2 /heap-arrays:0 /fpe:0 /traceback /nologo /fpp
/c /module:win64\mod_mf6\ /object:win64\obj_mf6\

System command used to initiate simulation:
C:\Users\sebas\anaconda3\Scripts\mf6.exe

MODFLOW was compiled using uniform precision.

Real Variables
  KIND: 8
  TINY (smallest non-zero value):    2.225074-308
  HUGE (largest value):    1.797693+308
  PRECISION: 15
  SIZE IN BITS: 64

Integer Variables
  KIND: 4
  HUGE (largest value): 2147483647
  SIZE IN BITS: 32

Long Integer Variables
  KIND: 8
  HUGE (largest value): 9223372036854775807
  SIZE IN BITS: 64

Logical Variables
  KIND: 4
  SIZE IN BITS: 32
 
 NAMEFILE OPTIONS:
    FLOWS WILL BE SAVED TO BUDGET FILE SPECIFIED IN OUTPUT CONTROL
 END NAMEFILE OPTIONS:

 DISV -- VERTEX GRID DISCRETIZATION PACKAGE, VERSION 1 : 12/23/2015 - INPUT READ FROM MEMPATH: __INPUT__/VORONOI_CASEC/DISV                      


 Setting Discretization Options
 End Setting Discretization Options

 Setting Discretization Dimensions
    NLAY = 2
    NCPL = 29071
    NVERT = 63528
 End Setting Discretization Dimensions

 Setting Discretization Griddata
    TOP set from input file
    BOTM set from input file
 End Setting Discretization Griddata

 Discretization Vertex data loaded
 Discretization Cell2d data loaded

 NPF -- NODE PROPERTY FLOW PACKAGE, VERSION 1, 3/30/2015 INPUT READ FROM MEMPATH: __INPUT__/VORONOI_CASEC/NPF                       


 IC -- Initial Conditions Package, Version 8, 3/28/2015 input read from mempath: __INPUT__/VORONOI_CASEC/IC                        


 Setting NPF Options
    Cell-by-cell flow information will be saved to binary file whenever ICBCFL is not zero.
    Specific discharge will be calculated at cell centers and written to DATA-SPDIS in budget file when requested.
 End Setting NPF Options

 Setting NPF Griddata
    ICELLTYPE set from input file
    K set from input file
    K33 not provided.  Setting K33 = K.
    K22 not provided.  Setting K22 = K.
 End Setting NPF Griddata


 WEL   -- WEL PACKAGE, VERSION 8, 2/22/2014 INPUT READ FROM MEMPATH: __INPUT__/VORONOI_CASEC/WELL_PACKAGE              

 PROCESSING WEL BASE OPTIONS
    FLOWS WILL BE SAVED TO BUDGET FILE SPECIFIED IN OUTPUT CONTROL
 END OF WEL BASE OPTIONS

 PROCESSING WEL OPTIONS
 END OF WEL OPTIONS

 PROCESSING WEL BASE DIMENSIONS
    MAXBOUND =   30654
 END OF WEL BASE DIMENSIONS

 RCH   -- RCH PACKAGE, VERSION 8, 2/22/2014 INPUT READ FROM MEMPATH: __INPUT__/VORONOI_CASEC/RCH                       

 PROCESSING RCH BASE OPTIONS
    FLOWS WILL BE SAVED TO BUDGET FILE SPECIFIED IN OUTPUT CONTROL
    RCH FLOWS WILL BE PRINTED TO LISTING FILE.
 END OF RCH BASE OPTIONS

 PROCESSING RCH OPTIONS
    RECHARGE WILL BE APPLIED TO SPECIFIED CELL.
 END OF RCH OPTIONS

 PROCESSING RCH BASE DIMENSIONS
    MAXBOUND =   29071
 END OF RCH BASE DIMENSIONS

 EVT   -- EVT PACKAGE, VERSION 8, 2/22/2014 INPUT READ FROM MEMPATH: __INPUT__/VORONOI_CASEC/EVT                       

 PROCESSING EVT BASE OPTIONS
    FLOWS WILL BE SAVED TO BUDGET FILE SPECIFIED IN OUTPUT CONTROL
 END OF EVT BASE OPTIONS

 PROCESSING EVT OPTIONS
 END OF EVT OPTIONS

 PROCESSING EVT BASE DIMENSIONS
    MAXBOUND =   22251
 END OF EVT BASE DIMENSIONS

 PROCESSING EVT DIMENSIONS
    NSEG = 1
 END OF EVT DIMENSIONS

 CHD   -- CHD PACKAGE, VERSION 8, 2/22/2014 INPUT READ FROM MEMPATH: __INPUT__/VORONOI_CASEC/CHD                       

 PROCESSING CHD BASE OPTIONS
    FLOWS WILL BE SAVED TO BUDGET FILE SPECIFIED IN OUTPUT CONTROL
 END OF CHD BASE OPTIONS

 PROCESSING CHD BASE DIMENSIONS
    MAXBOUND =   17182
 END OF CHD BASE DIMENSIONS
    STRT set from input file
    BINARY GRID INFORMATION WILL BE WRITTEN TO:
      UNIT NUMBER: 1016
      FILE NAME: voronoi_caseC.disv.grb

 OPENED voronoi_caseC.disv.grb
 FILE TYPE:DATA(BINARY)   UNIT 1016   STATUS:REPLACE             
 FORMAT:UNFORMATTED            ACCESS:STREAM              
 ACTION:READWRITE           

      THE LAST TIME STEP WILL BE PRINTED
      THE LAST TIME STEP WILL BE PRINTED
 # File generated by Flopy version 3.9.1 on 02/09/2026 at 23:51:37.

 PROCESSING OC OPTIONS

    BUDGET INFORMATION WILL BE WRITTEN TO:
      UNIT NUMBER: 1017
      FILE NAME: voronoi_caseC.cbc

 OPENED voronoi_caseC.cbc
 FILE TYPE:DATA(BINARY)   UNIT 1017   STATUS:REPLACE             
 FORMAT:UNFORMATTED            ACCESS:STREAM              
 ACTION:READWRITE           

    HEAD INFORMATION WILL BE WRITTEN TO:
      UNIT NUMBER: 1018
      FILE NAME: voronoi_caseC.hds

 OPENED voronoi_caseC.hds
 FILE TYPE:DATA(BINARY)   UNIT 1018   STATUS:REPLACE             
 FORMAT:UNFORMATTED            ACCESS:STREAM              
 ACTION:READWRITE           

 END OF OC OPTIONS

start timestep kper="1" kstp="1" mode="normal"


 BEGIN READING OUTPUT CONTROL FOR STRESS PERIOD 1
      THE LAST TIME STEP WILL BE SAVED
      THE LAST TIME STEP WILL BE SAVED
      THE LAST TIME STEP WILL BE PRINTED

 END READING OUTPUT CONTROL FOR STRESS PERIOD 1
 UBDSV1 SAVING     FLOW-JA-FACE ON UNIT   1017 AT TIME STEP      1, STRESS PERIOD      1
 UBDSV06 SAVING       DATA-SPDIS IN MODEL VORONOI_CASEC    PACKAGE NPF             CONNECTED TO MODEL VORONOI_CASEC    PACKAGE NPF              ON UNIT   1017 AT TIME STEP      1, STRESS PERIOD      1
 UBDSV06 SAVING              WEL IN MODEL VORONOI_CASEC    PACKAGE VORONOI_CASEC   CONNECTED TO MODEL VORONOI_CASEC    PACKAGE WELL_PACKAGE     ON UNIT   1017 AT TIME STEP      1, STRESS PERIOD      1
 UBDSV06 SAVING              RCH IN MODEL VORONOI_CASEC    PACKAGE VORONOI_CASEC   CONNECTED TO MODEL VORONOI_CASEC    PACKAGE RCH              ON UNIT   1017 AT TIME STEP      1, STRESS PERIOD      1
 UBDSV06 SAVING              EVT IN MODEL VORONOI_CASEC    PACKAGE VORONOI_CASEC   CONNECTED TO MODEL VORONOI_CASEC    PACKAGE EVT              ON UNIT   1017 AT TIME STEP      1, STRESS PERIOD      1
 UBDSV06 SAVING              CHD IN MODEL VORONOI_CASEC    PACKAGE VORONOI_CASEC   CONNECTED TO MODEL VORONOI_CASEC    PACKAGE CHD              ON UNIT   1017 AT TIME STEP      1, STRESS PERIOD      1

 RCH PACKAGE (RCH) FLOW RATES   PERIOD      1   STEP        1
 -----------------------------------------------
   NUMBER   CELLID                    RATE      
 -----------------------------------------------
     1      (1,1)                 0.0000000     
     2      (1,2)                 0.0000000     
     3      (1,3)                 0.0000000     
     4      (1,4)                 0.0000000     
     5      (1,5)                 0.0000000     
     6      (1,6)                 0.0000000     
     7      (1,7)                 0.0000000     
     8      (1,8)                 0.0000000     
     9      (1,9)                 0.0000000     
     10     (1,10)                0.0000000     
     11     (1,11)                0.0000000     
     12     (1,12)                0.0000000     
     13     (1,13)                0.0000000     
     14     (1,14)                0.0000000     
     15     (1,15)                0.0000000     
     16     (1,16)                0.0000000     
     17     (1,17)                0.0000000     
     18     (1,18)                0.0000000     
     19     (1,19)                0.0000000     
     20     (1,20)                0.0000000     
     21     (1,21)                0.0000000     
     22     (1,22)                0.0000000     
     23     (1,23)                0.0000000     
     24     (1,24)                0.0000000     
     25     (1,25)                0.0000000     
     26     (1,26)                0.0000000     
     27     (1,27)                0.0000000     
     28     (1,28)                0.0000000     
     29     (1,29)                0.0000000     
     30     (1,30)                0.0000000     
     31     (1,31)                0.0000000     
     32     (1,32)                0.0000000     
     33     (1,33)                0.0000000     
     34     (1,34)                0.0000000     
     35     (1,35)                8.19865582E-02
     36     (1,36)                9.95788597E-02
     37     (1,37)                7.49361985E-02
     38     (1,38)                0.14601672    
     39     (1,39)                6.72903413E-02
     40     (1,40)                3.61542266E-02
     41     (1,41)                6.70348408E-02
     42     (1,42)                3.23718054E-02
     43     (1,43)                6.28268498E-02
     44     (1,44)                9.77144598E-02
     45     (1,45)                4.52486701E-04
     46     (1,46)                2.02605101E-02
     47     (1,47)                6.15862848E-02
     48     (1,48)                1.57109196E-03
     49     (1,49)                2.49649879E-02
     50     (1,50)                8.34677956E-02
     51     (1,51)                0.11402547    
     52     (1,52)                6.35890095E-02
     53     (1,53)                1.35804916E-02
     54     (1,54)                4.65767163E-03
     55     (1,55)                2.44716622E-02
     56     (1,56)                3.32881191E-03
     57     (1,57)                8.60800146E-04
     58     (1,58)                9.66987342E-03
     59     (1,59)                6.35423466E-03
     60     (1,60)                9.21178379E-02
     61     (1,61)                0.14634081    
     62     (1,62)                2.12360828E-02
     63     (1,63)                5.30985828E-02
     64     (1,64)                9.53286216E-02
     65     (1,65)                2.45648069E-03
     66     (1,66)                2.29104315E-02
     67     (1,67)                3.61994718E-03
     68     (1,68)                9.33423345E-05
     69     (1,69)                1.26079916E-03
     70     (1,70)                2.29270048E-03
     71     (1,71)                1.82618912E-03
     72     (1,72)                9.97099500E-04
     73     (1,73)                1.46324732E-03
     74     (1,74)                2.21209842E-03
     75     (1,75)                4.39918735E-02
     76     (1,76)                0.10533782    
     77     (1,77)                1.49257633E-02
     78     (1,78)                1.18990947E-03
     79     (1,79)                3.31411618E-04
     80     (1,80)                8.56275020E-03
     81     (1,81)                6.93674465E-03
     82     (1,82)                9.87605704E-03
     83     (1,83)                4.48114915E-04
     84     (1,84)                2.38209868E-03
     85     (1,85)                2.21160509E-04
     86     (1,86)                2.10213320E-04
     87     (1,87)                9.50347616E-03
     88     (1,88)                7.30495669E-03
     89     (1,89)                1.50300279E-03
     90     (1,90)                2.32401454E-03
     91     (1,91)                1.66720403E-03
     92     (1,92)                9.54035458E-04
     93     (1,93)                4.37090625E-03
     94     (1,94)                7.80152082E-03
     95     (1,95)                1.89049655E-04
     96     (1,96)                1.83898630E-02
     97     (1,97)                1.76175502E-03
     98     (1,98)                1.95928626E-02
     99     (1,99)                6.12457352E-04
    100     (1,100)               3.94844955E-03
    101     (1,101)               6.16806571E-03
    102     (1,102)               1.33710051E-03
    103     (1,103)               1.12012500E-02
    104     (1,104)               9.28477231E-03
    105     (1,105)               2.61145754E-03
    106     (1,106)               1.75527849E-02
    107     (1,107)               9.87135180E-04
    108     (1,108)               1.44383387E-02
    109     (1,109)               1.33168634E-02
    110     (1,110)               3.92270891E-04
    111     (1,111)               4.93894317E-04
    112     (1,112)               5.12375418E-03
    113     (1,113)               1.85256183E-03
    114     (1,114)               4.21769630E-03
    115     (1,115)               1.21724063E-05
    116     (1,116)               1.25622813E-04
    117     (1,117)               8.88325802E-05
    118     (1,118)               7.73249288E-04
    119     (1,119)               2.88066700E-04
    120     (1,120)               1.87236533E-04
    121     (1,121)               2.60454291E-03
    122     (1,122)               8.78111149E-03
    123     (1,123)               2.91554838E-03
    124     (1,124)               2.25826041E-04
    125     (1,125)               8.37586543E-03
    126     (1,126)               5.14122613E-03
    127     (1,127)               2.60375801E-03
    128     (1,128)               7.16233242E-03
    129     (1,129)               6.11193661E-04
    130     (1,130)               7.27182939E-02
    131     (1,131)               5.38120017E-03
    132     (1,132)               5.74863652E-03
    133     (1,133)               2.13912899E-04
    134     (1,134)               1.75562636E-02
    135     (1,135)               9.99865962E-03
    136     (1,136)               3.15709178E-03
    137     (1,137)               1.52046441E-03
    138     (1,138)               6.02789732E-03
    139     (1,139)               8.48893494E-03
    140     (1,140)               9.09545326E-03
    141     (1,141)               2.61777853E-03
    142     (1,142)               2.01873596E-02
    143     (1,143)               1.14162724E-02
    144     (1,144)               9.25275303E-03
    145     (1,145)               2.86707701E-02
    146     (1,146)               1.22389725E-03
    147     (1,147)               2.63647477E-02
    148     (1,148)               2.58052408E-02
    149     (1,149)               3.79295023E-03
    150     (1,150)               5.33868100E-03
    151     (1,151)               1.50554830E-03
    152     (1,152)               4.77405373E-04
    153     (1,153)               4.12037887E-05
    154     (1,154)               4.18453715E-05
    155     (1,155)               3.38526501E-05
    156     (1,156)               3.77647097E-05
    157     (1,157)               3.09935970E-05
    158     (1,158)               3.46680342E-05
    159     (1,159)               3.37354719E-05
    160     (1,160)               4.02721512E-05
    161     (1,161)               3.00543834E-05
    162     (1,162)               3.29826081E-05
    163     (1,163)               3.29879456E-05
    164     (1,164)               4.43714286E-05
    165     (1,165)               4.33319771E-05
    166     (1,166)               3.35995886E-05
    167     (1,167)               2.97955119E-05
    168     (1,168)               3.86138456E-05
    169     (1,169)               2.61903502E-05
    170     (1,170)               3.25419667E-05
    171     (1,171)               3.12577397E-05
    172     (1,172)               4.07381215E-05
    173     (1,173)               4.70894586E-05
    174     (1,174)               3.75309303E-05
    175     (1,175)               8.03794505E-05
    176     (1,176)               2.89939938E-05
    177     (1,177)               5.60848277E-05
    178     (1,178)               7.67548164E-05
    179     (1,179)               2.23142217E-05
    180     (1,180)               3.42192225E-05
    181     (1,181)               2.87910412E-05
    182     (1,182)               4.46932959E-05
    183     (1,183)               3.64546774E-05
    184     (1,184)               1.91487547E-05
    185     (1,185)               3.38616484E-05
    186     (1,186)               5.55416217E-05
    187     (1,187)               3.46744188E-05
    188     (1,188)               3.25639249E-05
    189     (1,189)               3.28984459E-05
    190     (1,190)               2.74675609E-05
    191     (1,191)               3.61920096E-05
    192     (1,192)               4.08000802E-05
    193     (1,193)               2.43818842E-05
    194     (1,194)               7.84550374E-05
    195     (1,195)               2.94875066E-05
    196     (1,196)               2.92167764E-05
    197     (1,197)               2.76273749E-05
    198     (1,198)               8.20885033E-05
    199     (1,199)               3.90504206E-05
    200     (1,200)               3.87958347E-05
    201     (1,201)               6.12526635E-05
    202     (1,202)               2.91800081E-05
    203     (1,203)               3.01990352E-05
    204     (1,204)               3.40168299E-05
    205     (1,205)               0.14960940    
    206     (1,206)               4.23017310E-02
    207     (1,207)               2.42108105E-02
    208     (1,208)               1.40160915E-02
    209     (1,209)               5.04530341E-03
    210     (1,210)               3.41501702E-03
    211     (1,211)               6.63448100E-03
    212     (1,212)               1.20821850E-03
    213     (1,213)               4.21851484E-04
    214     (1,214)               5.45320923E-05
    215     (1,215)               5.73971246E-05
    216     (1,216)               2.24065865E-03
    217     (1,217)               1.37404900E-02
    218     (1,218)               3.41239024E-03
    219     (1,219)               2.19920822E-02
    220     (1,220)               4.47294838E-03
    221     (1,221)               1.44942788E-04
    222     (1,222)               1.43246145E-03
    223     (1,223)               1.84160283E-03
    224     (1,224)               1.05870307E-02
    225     (1,225)               1.12791460E-02
    226     (1,226)               3.09409899E-03
    227     (1,227)               1.08487193E-02
    228     (1,228)               1.25229851E-03
    229     (1,229)               9.47667390E-03
    230     (1,230)               1.29430982E-02
    231     (1,231)               1.02860209E-02
    232     (1,232)               5.53362490E-03
    233     (1,233)               1.75866553E-03
    234     (1,234)               0.11233782    
    235     (1,235)               6.63882824E-02
    236     (1,236)               0.12651178    
    237     (1,237)               1.97728677E-03
    238     (1,238)               1.14540564E-02
    239     (1,239)               2.17463693E-03
    240     (1,240)               7.05830023E-03
    241     (1,241)               3.01219158E-02
    242     (1,242)               0.15303957    
    243     (1,243)               4.89900287E-02
    244     (1,244)               4.10567951E-02
    245     (1,245)               9.61363818E-02
    246     (1,246)               1.97191431E-03
    247     (1,247)               1.28307943E-04
    248     (1,248)               1.37203236E-04
    249     (1,249)               5.99385755E-04
    250     (1,250)               3.87797951E-04
    251     (1,251)               2.64666847E-06
    252     (1,252)               3.20528859E-07
    253     (1,253)               2.13327442E-06
    254     (1,254)               5.10137930E-03
    255     (1,255)               2.53868154E-02
    256     (1,256)               4.19731855E-02
    257     (1,257)               2.94733585E-02
    258     (1,258)               1.62303067E-02
    259     (1,259)               2.60882138E-04
    260     (1,260)               0.0000000     
    261     (1,261)               0.0000000     
    262     (1,262)               0.0000000     
    263     (1,263)               0.0000000     
    264     (1,264)               0.0000000     
    265     (1,265)               0.0000000     
    266     (1,266)               0.0000000     
    267     (1,267)               0.0000000     
    268     (1,268)               0.0000000     
    269     (1,269)               0.0000000     
    270     (1,270)               0.0000000     
    271     (1,271)               0.0000000     
    272     (1,272)               0.0000000     
    273     (1,273)               0.0000000     
    274     (1,274)               0.0000000     
    275     (1,275)               0.0000000     
    276     (1,276)               0.0000000     
    277     (1,277)               0.0000000     
    278     (1,278)               0.0000000     
    279     (1,279)               0.0000000     
    280     (1,280)               0.0000000     
    281     (1,281)               0.0000000     
    282     (1,282)               0.0000000     
    283     (1,283)               0.0000000     
    284     (1,284)               0.0000000     
    285     (1,285)               0.0000000     
    286     (1,286)               0.0000000     
    287     (1,287)               0.0000000     
    288     (1,288)               0.0000000     
    289     (1,289)               0.0000000     
    290     (1,290)               0.0000000     
    291     (1,291)               0.0000000     
    292     (1,292)               0.0000000     
    293     (1,293)               0.0000000     
    294     (1,294)               0.0000000     
    295     (1,295)               0.0000000     
    296     (1,296)               0.0000000     
    297     (1,297)               0.0000000     
    298     (1,298)               0.0000000     
    299     (1,299)               0.0000000     
    300     (1,300)               0.0000000     
    301     (1,301)               0.0000000     
    302     (1,302)               0.0000000     
    303     (1,303)               0.0000000     
    304     (1,304)               0.0000000     
    305     (1,305)               0.0000000     
    306     (1,306)               0.0000000     
    307     (1,307)               0.0000000     
    308     (1,308)               0.0000000     
    309     (1,309)               0.0000000     
    310     (1,310)               0.0000000     
    311     (1,311)               0.0000000     
    312     (1,312)               0.0000000     
    313     (1,313)               0.0000000     
    314     (1,314)               0.0000000     
    315     (1,315)               0.0000000     
    316     (1,316)               0.0000000     
    317     (1,317)               0.0000000     
    318     (1,318)               0.0000000     
    319     (1,319)               0.0000000     
    320     (1,320)               0.0000000     
    321     (1,321)               0.0000000     
    322     (1,322)               0.0000000     
    323     (1,323)               0.0000000     
    324     (1,324)               0.0000000     
    325     (1,325)               0.0000000     
    326     (1,326)               0.0000000     
    327     (1,327)               0.0000000     
    328     (1,328)               0.0000000     
    329     (1,329)               0.0000000     
    330     (1,330)               0.0000000     
    331     (1,331)               0.0000000     
    332     (1,332)               0.0000000     
    333     (1,333)               0.0000000     
    334     (1,334)               0.0000000     
    335     (1,335)               0.0000000     
    336     (1,336)               0.0000000     
    337     (1,337)               0.0000000     
    338     (1,338)               0.0000000     
    339     (1,339)               0.0000000     
    340     (1,340)               0.0000000     
    341     (1,341)               0.0000000     
    342     (1,342)               0.0000000     
    343     (1,343)               0.0000000     
    344     (1,344)               0.0000000     
    345     (1,345)               0.0000000     
    346     (1,346)               0.0000000     
    347     (1,347)               0.0000000     
    348     (1,348)               0.0000000     
    349     (1,349)               0.0000000     
    350     (1,350)               0.0000000     
    351     (1,351)               0.0000000     
    352     (1,352)               0.0000000     
    353     (1,353)               0.0000000     
    354     (1,354)               0.0000000     
    355     (1,355)               0.0000000     
    356     (1,356)               0.0000000     
    357     (1,357)               0.0000000     
    358     (1,358)               0.0000000     
    359     (1,359)               0.0000000     
    360     (1,360)               0.0000000     
    361     (1,361)               0.0000000     
    362     (1,362)               0.0000000     
    363     (1,363)               0.0000000     
    364     (1,364)               0.0000000     
    365     (1,365)               0.0000000     
    366     (1,366)               0.0000000     
    367     (1,367)               0.0000000     
    368     (1,368)               0.0000000     
    369     (1,369)               0.0000000     
    370     (1,370)               0.0000000     
    371     (1,371)               0.0000000     
    372     (1,372)               0.0000000     
    373     (1,373)               0.0000000     
    374     (1,374)               0.0000000     
    375     (1,375)               0.0000000     
    376     (1,376)               0.0000000     
    377     (1,377)               0.0000000     
    378     (1,378)               0.0000000     
    379     (1,379)               0.0000000     
    380     (1,380)               0.0000000     
    381     (1,381)               0.0000000     
    382     (1,382)               0.0000000     
    383     (1,383)               0.0000000     
    384     (1,384)               0.0000000     
    385     (1,385)               0.0000000     
    386     (1,386)               0.0000000     
    387     (1,387)               0.0000000     
    388     (1,388)               0.0000000     
    389     (1,389)               0.0000000     
    390     (1,390)               0.0000000     
    391     (1,391)               0.0000000     
    392     (1,392)               0.0000000     
    393     (1,393)               0.0000000     
    394     (1,394)               0.0000000     
    395     (1,395)               0.0000000     
    396     (1,396)               0.0000000     
    397     (1,397)               0.0000000     
    398     (1,398)               0.0000000     
    399     (1,399)               0.0000000     
    400     (1,400)               0.0000000     
    401     (1,401)               0.0000000     
    402     (1,402)               0.0000000     
    403     (1,403)               0.0000000     
    404     (1,404)               0.0000000     
    405     (1,405)               0.0000000     
    406     (1,406)               0.0000000     
    407     (1,407)               0.0000000     
    408     (1,408)               0.0000000     
    409     (1,409)               0.0000000     
    410     (1,410)               0.0000000     
    411     (1,411)               0.0000000     
    412     (1,412)               0.0000000     
    413     (1,413)               0.0000000     
    414     (1,414)               0.0000000     
    415     (1,415)               0.0000000     
    416     (1,416)               0.0000000     
    417     (1,417)               0.0000000     
    418     (1,418)               0.0000000     
    419     (1,419)               0.0000000     
    420     (1,420)               0.0000000     
    421     (1,421)               0.0000000     
    422     (1,422)               0.0000000     
    423     (1,423)               0.0000000     
    424     (1,424)               0.0000000     
    425     (1,425)               0.0000000     
    426     (1,426)               0.0000000     
    427     (1,427)               0.0000000     
    428     (1,428)               0.0000000     
    429     (1,429)               0.0000000     
    430     (1,430)               0.0000000     
    431     (1,431)               0.0000000     
    432     (1,432)               0.0000000     
    433     (1,433)               0.0000000     
    434     (1,434)               0.0000000     
    435     (1,435)               0.0000000     
    436     (1,436)               0.0000000     
    437     (1,437)               0.0000000     
    438     (1,438)               0.0000000     
    439     (1,439)               0.0000000     
    440     (1,440)               0.0000000     
    441     (1,441)               0.0000000     
    442     (1,442)               0.0000000     
    443     (1,443)               0.0000000     
    444     (1,444)               0.0000000     
    445     (1,445)               0.0000000     
    446     (1,446)               0.0000000     
    447     (1,447)               0.0000000     
    448     (1,448)               0.0000000     
    449     (1,449)               0.0000000     
    450     (1,450)               0.0000000     
    451     (1,451)               0.0000000     
    452     (1,452)               0.0000000     
    453     (1,453)               0.0000000     
    454     (1,454)               0.0000000     
    455     (1,455)               0.0000000     
    456     (1,456)               0.0000000     
    457     (1,457)               0.0000000     
    458     (1,458)               0.0000000     
    459     (1,459)               0.0000000     
    460     (1,460)               0.0000000     
    461     (1,461)               0.0000000     
    462     (1,462)               0.0000000     
    463     (1,463)               0.0000000     
    464     (1,464)               0.0000000     
    465     (1,465)               0.0000000     
    466     (1,466)               0.0000000     
    467     (1,467)               0.0000000     
    468     (1,468)               0.0000000     
    469     (1,469)               0.0000000     
    470     (1,470)               0.0000000     
    471     (1,471)               0.0000000     
    472     (1,472)               0.0000000     
    473     (1,473)               0.0000000     
    474     (1,474)               0.0000000     
    475     (1,475)               0.0000000     
    476     (1,476)               0.0000000     
    477     (1,477)               0.0000000     
    478     (1,478)               0.0000000     
    479     (1,479)               0.0000000     
    480     (1,480)               0.0000000     
    481     (1,481)               0.0000000     
    482     (1,482)               0.0000000     
    483     (1,483)               0.0000000     
    484     (1,484)               0.0000000     
    485     (1,485)               0.0000000     
    486     (1,486)               0.0000000     
    487     (1,487)               0.0000000     
    488     (1,488)               0.0000000     
    489     (1,489)               0.0000000     
    490     (1,490)               0.0000000     
    491     (1,491)               0.0000000     
    492     (1,492)               0.0000000     
    493     (1,493)               0.0000000     
    494     (1,494)               0.0000000     
    495     (1,495)               0.0000000     
    496     (1,496)               0.0000000     
    497     (1,497)               0.0000000     
    498     (1,498)               0.0000000     
    499     (1,499)               0.0000000     
    500     (1,500)               0.0000000     
    501     (1,501)               0.0000000     
    502     (1,502)               0.0000000     
    503     (1,503)               0.0000000     
    504     (1,504)               0.0000000     
    505     (1,505)               0.0000000     
    506     (1,506)               0.0000000     
    507     (1,507)               0.0000000     
    508     (1,508)               0.0000000     
    509     (1,509)               0.0000000     
    510     (1,510)               0.0000000     
    511     (1,511)               0.0000000     
    512     (1,512)               0.0000000     
    513     (1,513)               0.0000000     
    514     (1,514)               0.0000000     
    515     (1,515)               0.0000000     
    516     (1,516)               0.0000000     
    517     (1,517)               0.0000000     
    518     (1,518)               0.0000000     
    519     (1,519)               0.0000000     
    520     (1,520)               0.0000000     
    521     (1,521)               0.0000000     
    522     (1,522)               0.0000000     
    523     (1,523)               0.0000000     
    524     (1,524)               0.0000000     
    525     (1,525)               0.0000000     
    526     (1,526)               0.0000000     
    527     (1,527)               0.0000000     
    528     (1,528)               0.0000000     
    529     (1,529)               0.0000000     
    530     (1,530)               0.0000000     
    531     (1,531)               0.0000000     
    532     (1,532)               0.0000000     
    533     (1,533)               0.0000000     
    534     (1,534)               0.0000000     
    535     (1,535)               0.0000000     
    536     (1,536)               0.0000000     
    537     (1,537)               0.0000000     
    538     (1,538)               0.0000000     
    539     (1,539)               0.0000000     
    540     (1,540)               0.0000000     
    541     (1,541)               0.0000000     
    542     (1,542)               0.0000000     
    543     (1,543)               0.0000000     
    544     (1,544)               0.0000000     
    545     (1,545)               0.0000000     
    546     (1,546)               0.0000000     
    547     (1,547)               0.0000000     
    548     (1,548)               0.0000000     
    549     (1,549)               0.0000000     
    550     (1,550)               0.0000000     
    551     (1,551)               0.0000000     
    552     (1,552)               0.0000000     
    553     (1,553)               0.0000000     
    554     (1,554)               0.0000000     
    555     (1,555)               0.0000000     
    556     (1,556)               0.0000000     
    557     (1,557)               0.0000000     
    558     (1,558)               0.0000000     
    559     (1,559)               0.0000000     
    560     (1,560)               0.0000000     
    561     (1,561)               0.0000000     
    562     (1,562)               0.0000000     
    563     (1,563)               0.0000000     
    564     (1,564)               0.0000000     
    565     (1,565)               0.0000000     
    566     (1,566)               0.0000000     
    567     (1,567)               0.0000000     
    568     (1,568)               0.0000000     
    569     (1,569)               0.0000000     
    570     (1,570)               0.0000000     
    571     (1,571)               0.0000000     
    572     (1,572)               0.0000000     
    573     (1,573)               0.0000000     
    574     (1,574)               0.0000000     
    575     (1,575)               0.0000000     
    576     (1,576)               0.0000000     
    577     (1,577)               0.0000000     
    578     (1,578)               0.0000000     
    579     (1,579)               0.0000000     
    580     (1,580)               0.0000000     
    581     (1,581)               0.0000000     
    582     (1,582)               0.0000000     
    583     (1,583)               0.0000000     
    584     (1,584)               0.0000000     
    585     (1,585)               0.0000000     
    586     (1,586)               0.0000000     
    587     (1,587)               0.0000000     
    588     (1,588)               0.0000000     
    589     (1,589)               0.0000000     
    590     (1,590)               0.0000000     
    591     (1,591)               0.0000000     
    592     (1,592)               0.0000000     
    593     (1,593)               0.0000000     
    594     (1,594)               0.0000000     
    595     (1,595)               0.0000000     
    596     (1,596)               0.0000000     
    597     (1,597)               0.0000000     
    598     (1,598)               0.0000000     
    599     (1,599)               0.0000000     
    600     (1,600)               0.0000000     
    601     (1,601)               0.0000000     
    602     (1,602)               0.0000000     
    603     (1,603)               0.0000000     
    604     (1,604)               0.0000000     
    605     (1,605)               0.0000000     
    606     (1,606)               0.0000000     
    607     (1,607)               0.0000000     
    608     (1,608)               0.0000000     
    609     (1,609)               0.0000000     
    610     (1,610)               0.0000000     
    611     (1,611)               0.0000000     
    612     (1,612)               0.0000000     
    613     (1,613)               0.0000000     
    614     (1,614)               0.0000000     
    615     (1,615)               0.0000000     
    616     (1,616)               0.0000000     
    617     (1,617)               0.0000000     
    618     (1,618)               0.0000000     
    619     (1,619)               0.0000000     
    620     (1,620)               0.0000000     
    621     (1,621)               0.0000000     
    622     (1,622)               0.0000000     
    623     (1,623)               0.0000000     
    624     (1,624)               0.0000000     
    625     (1,625)               0.0000000     
    626     (1,626)               0.0000000     
    627     (1,627)               0.0000000     
    628     (1,628)               0.0000000     
    629     (1,629)               0.0000000     
    630     (1,630)               0.0000000     
    631     (1,631)               0.0000000     
    632     (1,632)               0.0000000     
    633     (1,633)               0.0000000     
    634     (1,634)               0.0000000     
    635     (1,635)               0.0000000     
    636     (1,636)               0.0000000     
    637     (1,637)               0.0000000     
    638     (1,638)               0.0000000     
    639     (1,639)               0.0000000     
    640     (1,640)               0.0000000     
    641     (1,641)               0.0000000     
    642     (1,642)               0.0000000     
    643     (1,643)               2.43307242E-05
    644     (1,644)               4.77972140E-05
    645     (1,645)               5.48118557E-05
    646     (1,646)               7.90429516E-05
    647     (1,647)               1.28053966E-04
    648     (1,648)               1.51421436E-04
    649     (1,649)               4.63444316E-05
    650     (1,650)               4.12250326E-06
    651     (1,651)               4.81768942E-06
    652     (1,652)               5.85115002E-08
    653     (1,653)               5.09875554E-08
    654     (1,654)               1.96113231E-05
    655     (1,655)               1.86981009E-04
    656     (1,656)               1.26520824E-04
    657     (1,657)               2.55406247E-05
    658     (1,658)               3.05493108E-05
    659     (1,659)               9.67876341E-05
    660     (1,660)               6.21997406E-05
    661     (1,661)               7.96692290E-05
    662     (1,662)               1.09063424E-04
    663     (1,663)               5.77414259E-05
    664     (1,664)               3.89019020E-05
    665     (1,665)               5.20371378E-06
    666     (1,666)               4.08216207E-06
    667     (1,667)               8.22221659E-05
    668     (1,668)               3.82329127E-05
    669     (1,669)               3.05900933E-05
    670     (1,670)               5.07421925E-05
    671     (1,671)               4.43189654E-05
    672     (1,672)               2.06854082E-05
    673     (1,673)               9.96909695E-07
    674     (1,674)               6.82672378E-07
    675     (1,675)               5.64505294E-05
    676     (1,676)               6.83257868E-07
    677     (1,677)               8.55441260E-07
    678     (1,678)               2.72469362E-07
    679     (1,679)               4.15117159E-07
    680     (1,680)               1.06422655E-05
    681     (1,681)               5.67613497E-05
    682     (1,682)               2.88015930E-05
    683     (1,683)               1.65963697E-05
    684     (1,684)               1.33511462E-05
    685     (1,685)               2.13848005E-05
    686     (1,686)               3.81674246E-06
    687     (1,687)               2.50415068E-07
    688     (1,688)               3.21367212E-07
    689     (1,689)               2.44063074E-05
    690     (1,690)               1.10685942E-05
    691     (1,691)               1.46412526E-05
    692     (1,692)               5.05180094E-05
    693     (1,693)               1.23623898E-04
    694     (1,694)               6.66254236E-05
    695     (1,695)               2.14201372E-07
    696     (1,696)               1.19745504E-07
    697     (1,697)               9.39962691E-07
    698     (1,698)               3.49147047E-05
    699     (1,699)               3.06586554E-05
    700     (1,700)               1.70221765E-05
    701     (1,701)               1.62086085E-06
    702     (1,702)               1.58826052E-06
    703     (1,703)               9.65903980E-06
    704     (1,704)               1.82753477E-07
    705     (1,705)               1.33480953E-07
    706     (1,706)               4.31460921E-05
    707     (1,707)               2.42929391E-05
    708     (1,708)               1.83191002E-05
    709     (1,709)               2.18072799E-08
    710     (1,710)               2.25325139E-08
    711     (1,711)               9.69826399E-07
    712     (1,712)               1.70203115E-07
    713     (1,713)               1.71062649E-07
    714     (1,714)               1.43889732E-05
    715     (1,715)               3.99647029E-05
    716     (1,716)               1.61883690E-05
    717     (1,717)               5.04254229E-06
    718     (1,718)               2.97792131E-06
    719     (1,719)               8.80417243E-06
    720     (1,720)               9.90874212E-06
    721     (1,721)               1.54807100E-07
    722     (1,722)               1.08999574E-07
    723     (1,723)               7.31408730E-06
    724     (1,724)               4.76298577E-06
    725     (1,725)               4.48719843E-08
    726     (1,726)               4.42220605E-08
    727     (1,727)               5.12415649E-05
    728     (1,728)               1.16631718E-05
    729     (1,729)               2.12476704E-07
    730     (1,730)               2.76463819E-07
    731     (1,731)               6.89488532E-06
    732     (1,732)               6.75736980E-05
    733     (1,733)               3.11571691E-04
    734     (1,734)               4.13371754E-04
    735     (1,735)               3.80663204E-04
    736     (1,736)               3.72426532E-04
    737     (1,737)               4.38516260E-04
    738     (1,738)               3.04370961E-04
    739     (1,739)               3.04242497E-04
    740     (1,740)               3.44439997E-04
    741     (1,741)               3.47626035E-04
    742     (1,742)               2.82235695E-04
    743     (1,743)               1.35006108E-04
    744     (1,744)               1.94240524E-04
    745     (1,745)               2.42802253E-04
    746     (1,746)               1.71007294E-04
    747     (1,747)               2.37041198E-04
    748     (1,748)               3.12595119E-04
    749     (1,749)               2.66530156E-04
    750     (1,750)               3.22066643E-04
    751     (1,751)               1.50955884E-04
    752     (1,752)               2.10525425E-04
    753     (1,753)               2.78923444E-04
    754     (1,754)               4.21023633E-04
    755     (1,755)               2.89571801E-04
    756     (1,756)               2.89444719E-04
    757     (1,757)               3.30310757E-04
    758     (1,758)               3.33753525E-04
    759     (1,759)               2.55903770E-04
    760     (1,760)               8.48845207E-05
    761     (1,761)               2.41153336E-06
    762     (1,762)               1.62678119E-06
    763     (1,763)               1.86356058E-06
    764     (1,764)               3.01308279E-06
    765     (1,765)               8.34465645E-05
    766     (1,766)               2.79105102E-05
    767     (1,767)               9.41178725E-06
    768     (1,768)               9.96024465E-06
    769     (1,769)               3.41499307E-06
    770     (1,770)               1.62106345E-06
    771     (1,771)               3.60136670E-06
    772     (1,772)               8.32301525E-05
    773     (1,773)               5.54854044E-05
    774     (1,774)               1.39649229E-05
    775     (1,775)               3.50980224E-06
    776     (1,776)               5.19532947E-06
    777     (1,777)               9.80688326E-05
    778     (1,778)               1.59789800E-04
    779     (1,779)               2.36824955E-05
    780     (1,780)               2.36586921E-05
    781     (1,781)               9.86056161E-05
    782     (1,782)               5.65970893E-05
    783     (1,783)               1.14242991E-06
    784     (1,784)               1.24565590E-06
    785     (1,785)               1.04421637E-04
    786     (1,786)               3.64259705E-04
    787     (1,787)               2.84154000E-04
    788     (1,788)               3.48056485E-04
    789     (1,789)               3.65870428E-04
    790     (1,790)               3.59136186E-04
    791     (1,791)               3.65505977E-04
    792     (1,792)               2.87447832E-04
    793     (1,793)               3.06852086E-04
    794     (1,794)               3.95676857E-04
    795     (1,795)               1.88233397E-04
    796     (1,796)               7.98267106E-05
    797     (1,797)               2.09327741E-05
    798     (1,798)               1.86157334E-05
    799     (1,799)               4.17992326E-05
    800     (1,800)               1.17941222E-05
    801     (1,801)               8.48948322E-06
    802     (1,802)               2.98293951E-05
    803     (1,803)               5.02396679E-05
    804     (1,804)               2.35075171E-04
    805     (1,805)               1.59939959E-04
    806     (1,806)               8.49454512E-05
    807     (1,807)               1.31411544E-06
    808     (1,808)               1.79974232E-06
    809     (1,809)               1.23109440E-04
    810     (1,810)               1.57565684E-04
    811     (1,811)               1.65525350E-05
    812     (1,812)               1.49948628E-05
    813     (1,813)               1.48951347E-04
    814     (1,814)               1.70815851E-04
    815     (1,815)               2.12214927E-05
    816     (1,816)               5.33375546E-06
    817     (1,817)               2.96234463E-07
    818     (1,818)               3.33250984E-07
    819     (1,819)               1.76569042E-04
    820     (1,820)               2.49951370E-04
    821     (1,821)               1.94353016E-04
    822     (1,822)               6.58033809E-05
    823     (1,823)               4.56806063E-05
    824     (1,824)               1.85157851E-05
    825     (1,825)               1.91368436E-05
    826     (1,826)               2.23656315E-04
    827     (1,827)               4.27554411E-04
    828     (1,828)               1.95187321E-04
    829     (1,829)               1.91600194E-05
    830     (1,830)               1.17266199E-05
    831     (1,831)               1.84865207E-05
    832     (1,832)               3.33795060E-05
    833     (1,833)               6.78046418E-05
    834     (1,834)               6.45297307E-05
    835     (1,835)               1.76146875E-04
    836     (1,836)               2.90924769E-04
    837     (1,837)               2.18340815E-04
    838     (1,838)               3.75391352E-04
    839     (1,839)               3.75350355E-04
    840     (1,840)               3.12519652E-04
    841     (1,841)               3.21188338E-04
    842     (1,842)               2.58599690E-04
    843     (1,843)               2.50944353E-04
    844     (1,844)               1.53335280E-04
    845     (1,845)               3.22692296E-05
    846     (1,846)               1.11675688E-05
    847     (1,847)               2.98095726E-08
    848     (1,848)               2.08388222E-08
    849     (1,849)               9.94494464E-06
    850     (1,850)               5.62974688E-05
    851     (1,851)               1.94020940E-04
    852     (1,852)               5.34521381E-05
    853     (1,853)               1.12233246E-05
    854     (1,854)               2.45868181E-05
    855     (1,855)               7.19441845E-05
    856     (1,856)               1.29839233E-05
    857     (1,857)               1.08096117E-05
    858     (1,858)               1.31075820E-04
    859     (1,859)               1.75926283E-04
    860     (1,860)               1.54658126E-04
    861     (1,861)               1.09402421E-04
    862     (1,862)               4.76659007E-05
    863     (1,863)               5.78512745E-05
    864     (1,864)               1.68173341E-04
    865     (1,865)               2.00790802E-05
    866     (1,866)               1.57070023E-05
    867     (1,867)               6.75831440E-05
    868     (1,868)               2.41398830E-05
    869     (1,869)               2.53210321E-06
    870     (1,870)               5.08273247E-06
    871     (1,871)               1.49915631E-04
    872     (1,872)               1.30656568E-04
    873     (1,873)               1.66870535E-05
    874     (1,874)               1.48187330E-05
    875     (1,875)               9.03291119E-05
    876     (1,876)               1.28048739E-04
    877     (1,877)               1.55065546E-04
    878     (1,878)               4.08087947E-04
    879     (1,879)               1.99263837E-04
    880     (1,880)               8.20069911E-05
    881     (1,881)               1.84661809E-05
    882     (1,882)               4.76040756E-05
    883     (1,883)               7.41380663E-05
    884     (1,884)               1.30064258E-05
    885     (1,885)               1.14023664E-05
    886     (1,886)               1.69617288E-05
    887     (1,887)               2.52394561E-05
    888     (1,888)               1.43067771E-04
    889     (1,889)               1.82862618E-04
    890     (1,890)               1.29672165E-05
    891     (1,891)               7.21689181E-06
    892     (1,892)               1.72159593E-04
    893     (1,893)               2.77838724E-04
    894     (1,894)               9.28150060E-05
    895     (1,895)               3.46739170E-05
    896     (1,896)               2.02197449E-06
    897     (1,897)               8.75248042E-07
    898     (1,898)               9.58581720E-07
    899     (1,899)               3.18878997E-06
    900     (1,900)               7.20490702E-05
    901     (1,901)               1.66173900E-04
    902     (1,902)               8.19813971E-05
    903     (1,903)               2.36365095E-07
    904     (1,904)               1.07108385E-07
    905     (1,905)               1.40428881E-06
    906     (1,906)               5.25323468E-06
    907     (1,907)               3.78022232E-06
    908     (1,908)               1.58427355E-05
    909     (1,909)               8.28045752E-05
    910     (1,910)               1.22769901E-04
    911     (1,911)               1.45151340E-04
    912     (1,912)               2.89702490E-04
    913     (1,913)               1.62708152E-04
    914     (1,914)               4.60891656E-06
    915     (1,915)               2.85299197E-06
    916     (1,916)               1.67716030E-05
    917     (1,917)               8.67494293E-05
    918     (1,918)               2.30056733E-04
    919     (1,919)               1.26355395E-04
    920     (1,920)               1.29238423E-04
    921     (1,921)               7.97886952E-05
    922     (1,922)               3.05649141E-05
    923     (1,923)               1.21631277E-05
    924     (1,924)               1.57044995E-05
    925     (1,925)               1.18583838E-04
    926     (1,926)               3.13921395E-04
    927     (1,927)               3.43278426E-04
    928     (1,928)               3.21509628E-04
    929     (1,929)               2.55582482E-04
    930     (1,930)               1.42874263E-04
    931     (1,931)               1.31786809E-05
    932     (1,932)               2.29104977E-06
    933     (1,933)               4.67600058E-06
    934     (1,934)               5.10509269E-05
    935     (1,935)               2.09934497E-04
    936     (1,936)               2.86116407E-04
    937     (1,937)               7.28535649E-05
    938     (1,938)               8.59198396E-05
    939     (1,939)               2.04653599E-04
    940     (1,940)               7.38298975E-06
    941     (1,941)               1.25361352E-05
    942     (1,942)               1.71994259E-04
    943     (1,943)               1.60714244E-04
    944     (1,944)               1.50334179E-05
    945     (1,945)               1.43809475E-05
    946     (1,946)               1.36406576E-04
    947     (1,947)               1.41218370E-04
    948     (1,948)               1.99500432E-05
    949     (1,949)               1.57522428E-05
    950     (1,950)               9.26810757E-06
    951     (1,951)               4.15864493E-06
    952     (1,952)               2.35332961E-06
    953     (1,953)               3.12555592E-06
    954     (1,954)               2.84608235E-06
    955     (1,955)               3.48089455E-06
    956     (1,956)               1.51543454E-05
    957     (1,957)               5.34546077E-07
    958     (1,958)               5.08524533E-07
    959     (1,959)               1.02645023E-05
    960     (1,960)               1.57426333E-09
    961     (1,961)               6.99431147E-06
    962     (1,962)               6.88859615E-07
    963     (1,963)               4.58251669E-07
    964     (1,964)               1.18477379E-06
    965     (1,965)               4.33166031E-08
    966     (1,966)               4.89459425E-08
    967     (1,967)               1.67698590E-05
    968     (1,968)               1.23480265E-05
    969     (1,969)               1.03106878E-05
    970     (1,970)               7.32764806E-06
    971     (1,971)               1.16119899E-05
    972     (1,972)               4.04380195E-07
    973     (1,973)               3.71172893E-07
    974     (1,974)               5.39043140E-06
    975     (1,975)               9.46428311E-05
    976     (1,976)               2.20288184E-05
    977     (1,977)               8.21504281E-06
    978     (1,978)               4.24167355E-06
    979     (1,979)               5.53496960E-06
    980     (1,980)               1.01519148E-05
    981     (1,981)               1.07517800E-05
    982     (1,982)               1.46912308E-08
    983     (1,983)               1.41971537E-08
    984     (1,984)               4.71869687E-06
    985     (1,985)               5.60685090E-06
    986     (1,986)               4.94346866E-06
    987     (1,987)               6.93368320E-05
    988     (1,988)               2.20139151E-05
    989     (1,989)               1.40282437E-05
    990     (1,990)               4.82354229E-05
    991     (1,991)               1.39268321E-05
    992     (1,992)               1.93435096E-06
    993     (1,993)               3.07654396E-06
    994     (1,994)               3.16700675E-05
    995     (1,995)               3.50889962E-05
    996     (1,996)               2.02518595E-05
    997     (1,997)               2.09641004E-05
    998     (1,998)               3.83397424E-05
    999     (1,999)               7.65393194E-05
    1000    (1,1000)              5.35017530E-05
    1001    (1,1001)              5.46441002E-05
    1002    (1,1002)              3.90054391E-05
    1003    (1,1003)              3.89660964E-05
    1004    (1,1004)              3.44232426E-05
    1005    (1,1005)              1.53192284E-05
    1006    (1,1006)              3.79258530E-06
    1007    (1,1007)              1.80794505E-06
    1008    (1,1008)              9.02024022E-06
    1009    (1,1009)              1.27571869E-05
    1010    (1,1010)              1.94111505E-05
    1011    (1,1011)              1.80801396E-05
    1012    (1,1012)              8.88925804E-06
    1013    (1,1013)              7.72770693E-06
    1014    (1,1014)              1.79051466E-05
    1015    (1,1015)              5.57742284E-05
    1016    (1,1016)              2.83420925E-06
    1017    (1,1017)              2.45682224E-06
    1018    (1,1018)              5.34394424E-08
    1019    (1,1019)              4.48990782E-08
    1020    (1,1020)              4.30210913E-06
    1021    (1,1021)              4.09563879E-06
    1022    (1,1022)              3.82551707E-07
    1023    (1,1023)              5.02291245E-08
    1024    (1,1024)              4.76086210E-08
    1025    (1,1025)              1.46049017E-05
    1026    (1,1026)              1.24137595E-05
    1027    (1,1027)              8.50828266E-06
    1028    (1,1028)              1.06066803E-06
    1029    (1,1029)              4.99525105E-07
    1030    (1,1030)              1.54523073E-06
    1031    (1,1031)              5.92756311E-06
    1032    (1,1032)              1.07159922E-05
    1033    (1,1033)              2.85719597E-05
    1034    (1,1034)              2.41042785E-05
    1035    (1,1035)              1.21055851E-05
    1036    (1,1036)              8.36161719E-06
    1037    (1,1037)              7.33395826E-06
    1038    (1,1038)              4.98129942E-07
    1039    (1,1039)              1.09225305E-08
    1040    (1,1040)              1.29102945E-08
    1041    (1,1041)              1.01537957E-05
    1042    (1,1042)              4.49769073E-06
    1043    (1,1043)              7.19442396E-06
    1044    (1,1044)              4.25359781E-06
    1045    (1,1045)              2.68476392E-06
    1046    (1,1046)              2.79803479E-05
    1047    (1,1047)              4.61932829E-05
    1048    (1,1048)              1.15599889E-05
    1049    (1,1049)              1.38181833E-05
    1050    (1,1050)              7.95865702E-05
    1051    (1,1051)              8.56023052E-05
    1052    (1,1052)              7.71381017E-05
    1053    (1,1053)              3.43412451E-06
    1054    (1,1054)              2.52157974E-06
    1055    (1,1055)              1.13455715E-05
    1056    (1,1056)              2.34945791E-06
    1057    (1,1057)              2.16671350E-06
    1058    (1,1058)              3.47505281E-06
    1059    (1,1059)              3.79624804E-06
    1060    (1,1060)              3.66526529E-05
    1061    (1,1061)              6.64390550E-05
    1062    (1,1062)              4.11956820E-06
    1063    (1,1063)              3.71039759E-06
    1064    (1,1064)              3.40332377E-06
    1065    (1,1065)              3.42735981E-06
    1066    (1,1066)              1.08095343E-06
    1067    (1,1067)              1.22719878E-06
    1068    (1,1068)              1.01232503E-05
    1069    (1,1069)              2.32211674E-05
    1070    (1,1070)              3.21562591E-05
    1071    (1,1071)              8.74642359E-05
    1072    (1,1072)              2.63367413E-04
    1073    (1,1073)              4.11557424E-04
    1074    (1,1074)              1.79448109E-04
    1075    (1,1075)              1.94355114E-05
    1076    (1,1076)              1.68168834E-05
    1077    (1,1077)              7.65474086E-05
    1078    (1,1078)              3.73072051E-07
    1079    (1,1079)              3.64516379E-07
    1080    (1,1080)              1.55111284E-06
    1081    (1,1081)              8.23275426E-07
    1082    (1,1082)              1.15026790E-08
    1083    (1,1083)              1.17341801E-08
    1084    (1,1084)              4.35569540E-06
    1085    (1,1085)              6.55334777E-06
    1086    (1,1086)              1.24929830E-06
    1087    (1,1087)              4.67551715E-08
    1088    (1,1088)              6.00946784E-08
    1089    (1,1089)              1.20960653E-06
    1090    (1,1090)              9.11629313E-07
    1091    (1,1091)              3.58789575E-07
    1092    (1,1092)              7.09305778E-07
    1093    (1,1093)              1.94995286E-05
    1094    (1,1094)              1.20222415E-06
    1095    (1,1095)              9.71419834E-07
    1096    (1,1096)              2.70463078E-05
    1097    (1,1097)              4.43156651E-08
    1098    (1,1098)              4.83423637E-08
    1099    (1,1099)              3.13292104E-05
    1100    (1,1100)              8.34897949E-05
    1101    (1,1101)              2.88726036E-05
    1102    (1,1102)              1.44059288E-08
    1103    (1,1103)              1.16076555E-08
    1104    (1,1104)              5.32983991E-07
    1105    (1,1105)              1.53153712E-06
    1106    (1,1106)              1.56763860E-05
    1107    (1,1107)              3.64723085E-06
    1108    (1,1108)              1.79479657E-06
    1109    (1,1109)              7.02841148E-07
    1110    (1,1110)              8.13799305E-07
    1111    (1,1111)              2.52928670E-06
    1112    (1,1112)              3.12161293E-09
    1113    (1,1113)              2.87568767E-09
    1114    (1,1114)              6.41608426E-07
    1115    (1,1115)              5.94827261E-07
    1116    (1,1116)              1.07937365E-08
    1117    (1,1117)              1.10488060E-08
    1118    (1,1118)              2.30888192E-07
    1119    (1,1119)              1.40758114E-06
    1120    (1,1120)              4.54513491E-06
    1121    (1,1121)              1.07465949E-05
    1122    (1,1122)              6.32905431E-06
    1123    (1,1123)              3.48954115E-06
    1124    (1,1124)              3.22968128E-07
    1125    (1,1125)              5.57060585E-07
    1126    (1,1126)              1.30479704E-06
    1127    (1,1127)              4.53794299E-08
    1128    (1,1128)              5.13570704E-08
    1129    (1,1129)              1.22161452E-05
    1130    (1,1130)              2.22305086E-06
    1131    (1,1131)              5.73186698E-06
    1132    (1,1132)              3.00932186E-05
    1133    (1,1133)              2.88505659E-05
    1134    (1,1134)              1.33301824E-05
    1135    (1,1135)              7.44133061E-06
    1136    (1,1136)              3.51970041E-06
    1137    (1,1137)              6.79531854E-06
    1138    (1,1138)              6.55955332E-05
    1139    (1,1139)              1.58627741E-04
    1140    (1,1140)              5.13736469E-06
    1141    (1,1141)              2.34802026E-06
    1142    (1,1142)              3.80558863E-06
    1143    (1,1143)              4.79585169E-06
    1144    (1,1144)              4.76978254E-06
    1145    (1,1145)              7.42871841E-06
    1146    (1,1146)              1.94783398E-05
    1147    (1,1147)              1.50059306E-05
    1148    (1,1148)              1.88651342E-08
    1149    (1,1149)              2.46338129E-08
    1150    (1,1150)              2.17284959E-07
    1151    (1,1151)              2.88733092E-07
    1152    (1,1152)              3.71739210E-06
    1153    (1,1153)              1.01924269E-05
    1154    (1,1154)              2.53984454E-05
    1155    (1,1155)              5.72938552E-05
    1156    (1,1156)              4.84219714E-05
    1157    (1,1157)              1.71268640E-05
    1158    (1,1158)              2.81703484E-05
    1159    (1,1159)              1.51099935E-05
    1160    (1,1160)              7.94645139E-06
    1161    (1,1161)              7.32137352E-06
    1162    (1,1162)              1.76460316E-05
    1163    (1,1163)              1.44770206E-05
    1164    (1,1164)              1.42246240E-05
    1165    (1,1165)              2.06300248E-05
    1166    (1,1166)              3.54410720E-05
    1167    (1,1167)              5.92186664E-05
    1168    (1,1168)              4.21947475E-05
    1169    (1,1169)              5.96131057E-05
    1170    (1,1170)              7.90226856E-05
    1171    (1,1171)              6.35490794E-05
    1172    (1,1172)              8.05188148E-05
    1173    (1,1173)              1.75087921E-04
    1174    (1,1174)              1.11359739E-04
    1175    (1,1175)              2.46110867E-04
    1176    (1,1176)              1.53346861E-04
    1177    (1,1177)              2.27512549E-04
    1178    (1,1178)              4.26232639E-04
    1179    (1,1179)              2.22622916E-04
    1180    (1,1180)              7.52676800E-05
    1181    (1,1181)              8.68215671E-06
    1182    (1,1182)              8.70440345E-07
    1183    (1,1183)              1.01953119E-06
    1184    (1,1184)              4.18545335E-05
    1185    (1,1185)              1.39097811E-05
    1186    (1,1186)              5.22937153E-07
    1187    (1,1187)              4.54635469E-08
    1188    (1,1188)              5.90821217E-08
    1189    (1,1189)              5.43547470E-07
    1190    (1,1190)              7.19007659E-07
    1191    (1,1191)              9.05216666E-07
    1192    (1,1192)              9.67486653E-07
    1193    (1,1193)              5.95807056E-06
    1194    (1,1194)              7.54553616E-06
    1195    (1,1195)              1.88199985E-05
    1196    (1,1196)              4.27736960E-05
    1197    (1,1197)              2.93828250E-04
    1198    (1,1198)              3.16861475E-04
    1199    (1,1199)              1.20974033E-04
    1200    (1,1200)              1.05777983E-05
    1201    (1,1201)              2.90879526E-06
    1202    (1,1202)              8.06647258E-07
    1203    (1,1203)              1.04267762E-06
    1204    (1,1204)              2.50924151E-05
    1205    (1,1205)              1.73461734E-04
    1206    (1,1206)              2.78563166E-04
    1207    (1,1207)              1.92182310E-04
    1208    (1,1208)              7.93894440E-05
    1209    (1,1209)              1.26549666E-07
    1210    (1,1210)              7.16169878E-08
    1211    (1,1211)              1.14800828E-05
    1212    (1,1212)              3.22745161E-05
    1213    (1,1213)              5.51470538E-05
    1214    (1,1214)              9.72852185E-06
    1215    (1,1215)              1.29058446E-05
    1216    (1,1216)              2.12035158E-05
    1217    (1,1217)              1.04570739E-06
    1218    (1,1218)              6.41453599E-07
    1219    (1,1219)              1.12815960E-05
    1220    (1,1220)              2.17914428E-05
    1221    (1,1221)              2.13831440E-05
    1222    (1,1222)              1.98858788E-05
    1223    (1,1223)              1.13232100E-05
    1224    (1,1224)              9.71858362E-07
    1225    (1,1225)              5.56999893E-08
    1226    (1,1226)              5.46795557E-08
    1227    (1,1227)              4.77031587E-05
    1228    (1,1228)              2.06100178E-05
    1229    (1,1229)              8.54889687E-06
    1230    (1,1230)              5.41917184E-06
    1231    (1,1231)              1.16292208E-05
    1232    (1,1232)              5.72326625E-05
    1233    (1,1233)              2.56559023E-06
    1234    (1,1234)              2.68904120E-06
    1235    (1,1235)              3.06266561E-06
    1236    (1,1236)              2.41269921E-06
    1237    (1,1237)              3.03230783E-06
    1238    (1,1238)              4.07569665E-06
    1239    (1,1239)              3.02810697E-05
    1240    (1,1240)              7.13472523E-06
    1241    (1,1241)              6.22843972E-06
    1242    (1,1242)              7.17789068E-06
    1243    (1,1243)              6.82675306E-06
    1244    (1,1244)              2.96285135E-05
    1245    (1,1245)              4.28977440E-05
    1246    (1,1246)              4.31321571E-06
    1247    (1,1247)              4.75443952E-06
    1248    (1,1248)              1.98235119E-04
    1249    (1,1249)              1.75386681E-04
    1250    (1,1250)              1.89738550E-05
    1251    (1,1251)              1.02568571E-05
    1252    (1,1252)              2.44789585E-05
    1253    (1,1253)              1.28984390E-05
    1254    (1,1254)              1.52246694E-05
    1255    (1,1255)              2.29171149E-05
    1256    (1,1256)              4.69387094E-05
    1257    (1,1257)              1.04577303E-04
    1258    (1,1258)              2.89122047E-06
    1259    (1,1259)              2.87165642E-06
    1260    (1,1260)              7.12962942E-06
    1261    (1,1261)              1.45573529E-05
    1262    (1,1262)              7.02374567E-05
    1263    (1,1263)              1.97673193E-05
    1264    (1,1264)              2.98713862E-05
    1265    (1,1265)              1.22735790E-05
    1266    (1,1266)              6.29022520E-06
    1267    (1,1267)              3.44630923E-06
    1268    (1,1268)              3.05558440E-06
    1269    (1,1269)              9.69435763E-06
    1270    (1,1270)              6.69969005E-06
    1271    (1,1271)              1.44791661E-06
    1272    (1,1272)              1.50518784E-06
    1273    (1,1273)              1.51587081E-05
    1274    (1,1274)              2.05181374E-05
    1275    (1,1275)              6.48333189E-06
    1276    (1,1276)              5.16395295E-08
    1277    (1,1277)              4.02054007E-08
    1278    (1,1278)              2.12385819E-06
    1279    (1,1279)              1.26163860E-05
    1280    (1,1280)              3.52975931E-05
    1281    (1,1281)              6.76435157E-06
    1282    (1,1282)              5.37234124E-06
    1283    (1,1283)              5.11613728E-06
    1284    (1,1284)              5.88895874E-06
    1285    (1,1285)              3.01715892E-05
    1286    (1,1286)              1.12472747E-08
    1287    (1,1287)              1.41458959E-08
    1288    (1,1288)              1.33837431E-06
    1289    (1,1289)              6.46912708E-06
    1290    (1,1290)              2.49136906E-06
    1291    (1,1291)              4.39592953E-08
    1292    (1,1292)              4.51080644E-08
    1293    (1,1293)              5.83290141E-06
    1294    (1,1294)              5.38449280E-06
    1295    (1,1295)              1.44253379E-05
    1296    (1,1296)              1.39966823E-05
    1297    (1,1297)              4.19089012E-05
    1298    (1,1298)              8.39082584E-08
    1299    (1,1299)              9.06340664E-08
    1300    (1,1300)              1.46799124E-05
    1301    (1,1301)              1.22514991E-04
    1302    (1,1302)              7.77762921E-06
    1303    (1,1303)              7.06234123E-06
    1304    (1,1304)              3.89017492E-05
    1305    (1,1305)              3.00183012E-05
    1306    (1,1306)              4.06522213E-05
    1307    (1,1307)              8.32192780E-06
    1308    (1,1308)              1.99665182E-06
    1309    (1,1309)              3.56498978E-06
    1310    (1,1310)              4.14243956E-05
    1311    (1,1311)              5.62155299E-05
    1312    (1,1312)              5.50330435E-05
    1313    (1,1313)              8.61408051E-05
    1314    (1,1314)              1.58822329E-06
    1315    (1,1315)              1.03314858E-06
    1316    (1,1316)              3.66583184E-09
    1317    (1,1317)              3.07515742E-09
    1318    (1,1318)              1.58527769E-06
    1319    (1,1319)              2.51116356E-05
    1320    (1,1320)              4.31432168E-05
    1321    (1,1321)              7.06700247E-06
    1322    (1,1322)              5.79846634E-06
    1323    (1,1323)              1.60292786E-09
    1324    (1,1324)              5.13334303E-07
    1325    (1,1325)              5.72730621E-06
    1326    (1,1326)              1.07049959E-04
    1327    (1,1327)              1.37466768E-06
    1328    (1,1328)              1.12579324E-06
    1329    (1,1329)              1.35678189E-05
    1330    (1,1330)              3.21476342E-06
    1331    (1,1331)              4.41617631E-06
    1332    (1,1332)              8.66368561E-06
    1333    (1,1333)              2.96203844E-06
    1334    (1,1334)              7.22193773E-10
    1335    (1,1335)              7.71443727E-10
    1336    (1,1336)              4.31890242E-06
    1337    (1,1337)              1.62316369E-05
    1338    (1,1338)              5.16042760E-06
    1339    (1,1339)              4.70137804E-06
    1340    (1,1340)              6.85299329E-05
    1341    (1,1341)              4.76014989E-05
    1342    (1,1342)              6.67622693E-05
    1343    (1,1343)              1.50622329E-05
    1344    (1,1344)              1.31591153E-05
    1345    (1,1345)              1.87217296E-05
    1346    (1,1346)              1.15242959E-05
    1347    (1,1347)              8.95139247E-07
    1348    (1,1348)              9.74920207E-07
    1349    (1,1349)              1.71323027E-06
    1350    (1,1350)              2.68903301E-06
    1351    (1,1351)              7.87832278E-05
    1352    (1,1352)              4.11526728E-05
    1353    (1,1353)              7.83443510E-06
    1354    (1,1354)              3.71022276E-06
    1355    (1,1355)              3.77869887E-06
    1356    (1,1356)              1.36726123E-06
    1357    (1,1357)              1.53613414E-06
    1358    (1,1358)              1.42564385E-05
    1359    (1,1359)              9.90816359E-05
    1360    (1,1360)              1.46895798E-05
    1361    (1,1361)              1.00644132E-08
    1362    (1,1362)              1.33420001E-08
    1363    (1,1363)              2.48871220E-06
    1364    (1,1364)              8.14345308E-06
    1365    (1,1365)              1.67016766E-06
    1366    (1,1366)              2.36551593E-09
    1367    (1,1367)              2.69925455E-09
    1368    (1,1368)              1.00199107E-06
    1369    (1,1369)              5.26230970E-07
    1370    (1,1370)              5.06650995E-06
    1371    (1,1371)              9.78765382E-06
    1372    (1,1372)              1.33243816E-05
    1373    (1,1373)              9.91727585E-06
    1374    (1,1374)              1.24477873E-05
    1375    (1,1375)              5.24753511E-05
    1376    (1,1376)              2.74243070E-05
    1377    (1,1377)              3.04407954E-06
    1378    (1,1378)              2.01191008E-06
    1379    (1,1379)              7.09622552E-07
    1380    (1,1380)              7.12715543E-07
    1381    (1,1381)              2.42234909E-06
    1382    (1,1382)              3.85229721E-06
    1383    (1,1383)              1.98627376E-06
    1384    (1,1384)              9.36303286E-06
    1385    (1,1385)              4.19252103E-05
    1386    (1,1386)              5.61855378E-05
    1387    (1,1387)              7.80905402E-06
    1388    (1,1388)              2.25525328E-06
    1389    (1,1389)              7.55149966E-06
    1390    (1,1390)              5.73434614E-08
    1391    (1,1391)              5.56868617E-08
    1392    (1,1392)              9.36290206E-06
    1393    (1,1393)              2.29490468E-05
    1394    (1,1394)              7.13593009E-05
    1395    (1,1395)              1.91964825E-04
    1396    (1,1396)              2.30327234E-04
    1397    (1,1397)              6.25905104E-06
    1398    (1,1398)              5.00518322E-06
    1399    (1,1399)              7.44169214E-05
    1400    (1,1400)              1.55865809E-05
    1401    (1,1401)              5.78322416E-06
    1402    (1,1402)              3.05760371E-05
    1403    (1,1403)              2.06346846E-05
    1404    (1,1404)              7.18562462E-06
    1405    (1,1405)              1.51771177E-05
    1406    (1,1406)              1.74628027E-05
    1407    (1,1407)              3.01275278E-05
    1408    (1,1408)              9.37580701E-05
    1409    (1,1409)              4.39590846E-05
    1410    (1,1410)              1.59495983E-05
    1411    (1,1411)              8.56604008E-06
    1412    (1,1412)              3.43195208E-06
    1413    (1,1413)              1.19929319E-05
    1414    (1,1414)              1.41803801E-05
    1415    (1,1415)              1.30271646E-05
    1416    (1,1416)              1.10570469E-05
    1417    (1,1417)              7.75842770E-06
    1418    (1,1418)              4.40371533E-05
    1419    (1,1419)              7.85964725E-05
    1420    (1,1420)              6.20921828E-05
    1421    (1,1421)              4.72538084E-05
    1422    (1,1422)              1.24402499E-06
    1423    (1,1423)              5.75049956E-07
    1424    (1,1424)              2.55822130E-05
    1425    (1,1425)              5.81189090E-05
    1426    (1,1426)              1.61854896E-04
    1427    (1,1427)              1.76530385E-05
    1428    (1,1428)              5.48181600E-06
    1429    (1,1429)              1.10329219E-05
    1430    (1,1430)              2.31291511E-05
    1431    (1,1431)              1.87034656E-05
    1432    (1,1432)              2.00155196E-05
    1433    (1,1433)              3.98603936E-06
    1434    (1,1434)              3.76736727E-06
    1435    (1,1435)              4.47533946E-05
    1436    (1,1436)              6.96970226E-05
    1437    (1,1437)              9.93469495E-07
    1438    (1,1438)              1.14637741E-06
    1439    (1,1439)              3.14486247E-05
    1440    (1,1440)              1.26068243E-04
    1441    (1,1441)              3.42802350E-05
    1442    (1,1442)              1.07267456E-08
    1443    (1,1443)              1.21355986E-08
    1444    (1,1444)              1.98466586E-06
    1445    (1,1445)              8.34542310E-06
    1446    (1,1446)              1.47598435E-05
    1447    (1,1447)              3.75587335E-05
    1448    (1,1448)              6.20705806E-05
    1449    (1,1449)              4.04908962E-06
    1450    (1,1450)              1.60898151E-06
    1451    (1,1451)              2.19918180E-06
    1452    (1,1452)              1.16103858E-06
    1453    (1,1453)              2.90489066E-06
    1454    (1,1454)              4.66435266E-06
[...]
   28715    (1,28715)             0.20120498    
   28716    (1,28716)             9.64249654E-02
   28717    (1,28717)             0.21435521    
   28718    (1,28718)             0.12324476    
   28719    (1,28719)             0.27671340    
   28720    (1,28720)             0.18058281    
   28721    (1,28721)             0.16677777    
   28722    (1,28722)             0.18852756    
   28723    (1,28723)             0.20417186    
   28724    (1,28724)             0.28630109    
   28725    (1,28725)             0.25345508    
   28726    (1,28726)             0.17156391    
   28727    (1,28727)             0.14389793    
   28728    (1,28728)             0.21745454    
   28729    (1,28729)             0.22872858    
   28730    (1,28730)             0.26320598    
   28731    (1,28731)             0.16953965    
   28732    (1,28732)             0.23280359    
   28733    (1,28733)             0.22315707    
   28734    (1,28734)             0.22291435    
   28735    (1,28735)             0.19396409    
   28736    (1,28736)             0.20346731    
   28737    (1,28737)             0.24864327    
   28738    (1,28738)             0.28835806    
   28739    (1,28739)             0.17502185    
   28740    (1,28740)             0.27051982    
   28741    (1,28741)             0.26686234    
   28742    (1,28742)             0.26475865    
   28743    (1,28743)             0.28321122    
   28744    (1,28744)             0.18627963    
   28745    (1,28745)             0.22337113    
   28746    (1,28746)             0.17248448    
   28747    (1,28747)             0.23648232    
   28748    (1,28748)             0.18478878    
   28749    (1,28749)             0.21709602    
   28750    (1,28750)             0.14949233    
   28751    (1,28751)             0.19244510    
   28752    (1,28752)             0.14905354    
   28753    (1,28753)             0.17038147    
   28754    (1,28754)             0.16536454    
   28755    (1,28755)             0.24569320    
   28756    (1,28756)             0.26383271    
   28757    (1,28757)             0.16923469    
   28758    (1,28758)             0.23514974    
   28759    (1,28759)             0.21306877    
   28760    (1,28760)             0.16759256    
   28761    (1,28761)             0.22353326    
   28762    (1,28762)             0.23363939    
   28763    (1,28763)             0.20123566    
   28764    (1,28764)             0.27285836    
   28765    (1,28765)             0.21063078    
   28766    (1,28766)             0.24410459    
   28767    (1,28767)             0.30629953    
   28768    (1,28768)             0.16563150    
   28769    (1,28769)             0.23849453    
   28770    (1,28770)             0.25421517    
   28771    (1,28771)             0.20324767    
   28772    (1,28772)             0.22272831    
   28773    (1,28773)             0.23429095    
   28774    (1,28774)             0.23825409    
   28775    (1,28775)             0.24152286    
   28776    (1,28776)             0.25617562    
   28777    (1,28777)             0.21679695    
   28778    (1,28778)             0.16633959    
   28779    (1,28779)             0.18475456    
   28780    (1,28780)             0.22148609    
   28781    (1,28781)             0.19881156    
   28782    (1,28782)             0.21272844    
   28783    (1,28783)             0.19528911    
   28784    (1,28784)             0.21285935    
   28785    (1,28785)             0.22506932    
   28786    (1,28786)             0.18041561    
   28787    (1,28787)             0.28324901    
   28788    (1,28788)             0.25658591    
   28789    (1,28789)             0.23976883    
   28790    (1,28790)             0.24695591    
   28791    (1,28791)             0.21322337    
   28792    (1,28792)             0.28601439    
   28793    (1,28793)             0.22139483    
   28794    (1,28794)             0.25895065    
   28795    (1,28795)             0.24995108    
   28796    (1,28796)             0.22655482    
   28797    (1,28797)             0.21788387    
   28798    (1,28798)             0.22652111    
   28799    (1,28799)             0.22664561    
   28800    (1,28800)             0.19996649    
   28801    (1,28801)             0.25466806    
   28802    (1,28802)             0.18705079    
   28803    (1,28803)             0.19483927    
   28804    (1,28804)             0.23303521    
   28805    (1,28805)             0.19927185    
   28806    (1,28806)             0.26567375    
   28807    (1,28807)             0.23104343    
   28808    (1,28808)             0.21859109    
   28809    (1,28809)             0.24801905    
   28810    (1,28810)             0.23185937    
   28811    (1,28811)             0.21985400    
   28812    (1,28812)             0.24998678    
   28813    (1,28813)             0.22141142    
   28814    (1,28814)             0.21995516    
   28815    (1,28815)             0.21833029    
   28816    (1,28816)             0.30910333    
   28817    (1,28817)             0.27066854    
   28818    (1,28818)             0.22787390    
   28819    (1,28819)             0.23197105    
   28820    (1,28820)             0.22387476    
   28821    (1,28821)             0.26803030    
   28822    (1,28822)             0.25868432    
   28823    (1,28823)             0.24022634    
   28824    (1,28824)             0.26654388    
   28825    (1,28825)             0.23232041    
   28826    (1,28826)             0.19838160    
   28827    (1,28827)             0.31711153    
   28828    (1,28828)             0.18462987    
   28829    (1,28829)             0.23585749    
   28830    (1,28830)             0.21458424    
   28831    (1,28831)             0.22817209    
   28832    (1,28832)             0.23090628    
   28833    (1,28833)             0.21934062    
   28834    (1,28834)             0.25236240    
   28835    (1,28835)             0.26737166    
   28836    (1,28836)             0.20464613    
   28837    (1,28837)             0.26011414    
   28838    (1,28838)             0.21534208    
   28839    (1,28839)             0.21379628    
   28840    (1,28840)             0.20037419    
   28841    (1,28841)             0.16611781    
   28842    (1,28842)             0.17789448    
   28843    (1,28843)             0.22331142    
   28844    (1,28844)             0.20167660    
   28845    (1,28845)             0.23268233    
   28846    (1,28846)             0.18978089    
   28847    (1,28847)             0.17919851    
   28848    (1,28848)             0.20551805    
   28849    (1,28849)             0.17489405    
   28850    (1,28850)             0.16457366    
   28851    (1,28851)             0.15955959    
   28852    (1,28852)             0.22055993    
   28853    (1,28853)             0.23864197    
   28854    (1,28854)             0.15023002    
   28855    (1,28855)             0.20238387    
   28856    (1,28856)             0.25483145    
   28857    (1,28857)             0.20354571    
   28858    (1,28858)             0.21161189    
   28859    (1,28859)             0.24265752    
   28860    (1,28860)             0.24919803    
   28861    (1,28861)             0.27762022    
   28862    (1,28862)             0.25811862    
   28863    (1,28863)             0.18613922    
   28864    (1,28864)             0.21398832    
   28865    (1,28865)             0.24121035    
   28866    (1,28866)             0.29685991    
   28867    (1,28867)             0.28142459    
   28868    (1,28868)             0.19215156    
   28869    (1,28869)             0.21405716    
   28870    (1,28870)             0.11310217    
   28871    (1,28871)             0.22304874    
   28872    (1,28872)             0.26876040    
   28873    (1,28873)             0.19027327    
   28874    (1,28874)             0.21370943    
   28875    (1,28875)             0.12133735    
   28876    (1,28876)             0.13093756    
   28877    (1,28877)             0.24555519    
   28878    (1,28878)             0.15230604    
   28879    (1,28879)             0.15734375    
   28880    (1,28880)             0.22994037    
   28881    (1,28881)             0.16917285    
   28882    (1,28882)             0.25230306    
   28883    (1,28883)             0.17222247    
   28884    (1,28884)             0.18075664    
   28885    (1,28885)             0.27411373    
   28886    (1,28886)             0.20693983    
   28887    (1,28887)             0.18432169    
   28888    (1,28888)             0.20254699    
   28889    (1,28889)             0.29402346    
   28890    (1,28890)             0.30098595    
   28891    (1,28891)             0.23147580    
   28892    (1,28892)             0.18655865    
   28893    (1,28893)             0.22588744    
   28894    (1,28894)             0.19255662    
   28895    (1,28895)             0.27800817    
   28896    (1,28896)             0.25898974    
   28897    (1,28897)             0.22976145    
   28898    (1,28898)             0.23558822    
   28899    (1,28899)             0.28047936    
   28900    (1,28900)             0.17624923    
   28901    (1,28901)             0.20763848    
   28902    (1,28902)             0.18375994    
   28903    (1,28903)             0.22117021    
   28904    (1,28904)             0.21921266    
   28905    (1,28905)             0.21278497    
   28906    (1,28906)             0.18996301    
   28907    (1,28907)             0.27026515    
   28908    (1,28908)             0.20214543    
   28909    (1,28909)             0.24791859    
   28910    (1,28910)             0.30549131    
   28911    (1,28911)             0.25759610    
   28912    (1,28912)             0.20158889    
   28913    (1,28913)             0.25496374    
   28914    (1,28914)             0.23802295    
   28915    (1,28915)             0.19727903    
   28916    (1,28916)             0.21198785    
   28917    (1,28917)             0.24051247    
   28918    (1,28918)             0.20700650    
   28919    (1,28919)             0.25267877    
   28920    (1,28920)             0.26820006    
   28921    (1,28921)             0.21952950    
   28922    (1,28922)             0.24742053    
   28923    (1,28923)             0.21428880    
   28924    (1,28924)             0.20519398    
   28925    (1,28925)             0.24292985    
   28926    (1,28926)             0.26038504    
   28927    (1,28927)             0.25608241    
   28928    (1,28928)             0.25831909    
   28929    (1,28929)             0.17926140    
   28930    (1,28930)             0.25909215    
   28931    (1,28931)             0.23538410    
   28932    (1,28932)             0.25114257    
   28933    (1,28933)             0.22490174    
   28934    (1,28934)             0.23572266    
   28935    (1,28935)             0.26488620    
   28936    (1,28936)             0.21244773    
   28937    (1,28937)             0.24880455    
   28938    (1,28938)             0.18530073    
   28939    (1,28939)             0.21331860    
   28940    (1,28940)             0.18668986    
   28941    (1,28941)             0.19292626    
   28942    (1,28942)             0.20767867    
   28943    (1,28943)             0.20205765    
   28944    (1,28944)             0.19448463    
   28945    (1,28945)             0.18450886    
   28946    (1,28946)             0.26732624    
   28947    (1,28947)             0.25073261    
   28948    (1,28948)             0.25852715    
   28949    (1,28949)             0.24444985    
   28950    (1,28950)             0.23569320    
   28951    (1,28951)             0.18931982    
   28952    (1,28952)             0.21397453    
   28953    (1,28953)             0.17858760    
   28954    (1,28954)             0.28328503    
   28955    (1,28955)             0.19278666    
   28956    (1,28956)             0.18643584    
   28957    (1,28957)             0.18455342    
   28958    (1,28958)             0.17888720    
   28959    (1,28959)             0.20203000    
   28960    (1,28960)             0.18275248    
   28961    (1,28961)             0.19372082    
   28962    (1,28962)             0.19118006    
   28963    (1,28963)             0.21915716    
   28964    (1,28964)             0.22988709    
   28965    (1,28965)             0.21099096    
   28966    (1,28966)             0.18783191    
   28967    (1,28967)             0.25976159    
   28968    (1,28968)             0.29917100    
   28969    (1,28969)             0.22179303    
   28970    (1,28970)             0.23541961    
   28971    (1,28971)             0.22095588    
   28972    (1,28972)             0.17878023    
   28973    (1,28973)             0.22529718    
   28974    (1,28974)             0.25713740    
   28975    (1,28975)             0.22729553    
   28976    (1,28976)             0.21200493    
   28977    (1,28977)             0.25966802    
   28978    (1,28978)             0.19627123    
   28979    (1,28979)             0.23260803    
   28980    (1,28980)             0.22703105    
   28981    (1,28981)             0.22664844    
   28982    (1,28982)             0.24742066    
   28983    (1,28983)             0.17087459    
   28984    (1,28984)             0.19682360    
   28985    (1,28985)             0.24688954    
   28986    (1,28986)             0.25904398    
   28987    (1,28987)             0.27150829    
   28988    (1,28988)             0.21020639    
   28989    (1,28989)             0.22915932    
   28990    (1,28990)             0.19282786    
   28991    (1,28991)             0.26165915    
   28992    (1,28992)             0.28264442    
   28993    (1,28993)             0.25048147    
   28994    (1,28994)             0.22818376    
   28995    (1,28995)             0.24294091    
   28996    (1,28996)             0.18341491    
   28997    (1,28997)             0.18500280    
   28998    (1,28998)             0.20678469    
   28999    (1,28999)             0.19626157    
   29000    (1,29000)             0.28450867    
   29001    (1,29001)             0.25358029    
   29002    (1,29002)             0.27832798    
   29003    (1,29003)             0.26312896    
   29004    (1,29004)             0.29342403    
   29005    (1,29005)             0.19067567    
   29006    (1,29006)             0.20403946    
   29007    (1,29007)             0.26563317    
   29008    (1,29008)             0.22933287    
   29009    (1,29009)             0.18615913    
   29010    (1,29010)             0.16612080    
   29011    (1,29011)             0.23588599    
   29012    (1,29012)             0.25565730    
   29013    (1,29013)             0.25485054    
   29014    (1,29014)             0.27700998    
   29015    (1,29015)             0.21498164    
   29016    (1,29016)             0.21661552    
   29017    (1,29017)             0.20800187    
   29018    (1,29018)             0.19795608    
   29019    (1,29019)             0.25457601    
   29020    (1,29020)             0.26390412    
   29021    (1,29021)             0.23548052    
   29022    (1,29022)             0.14303394    
   29023    (1,29023)             0.25304492    
   29024    (1,29024)             0.23044940    
   29025    (1,29025)             0.12799823    
   29026    (1,29026)             0.28631481    
   29027    (1,29027)             0.25339709    
   29028    (1,29028)             0.19622767    
   29029    (1,29029)             0.19489802    
   29030    (1,29030)             0.23503873    
   29031    (1,29031)             0.23244122    
   29032    (1,29032)             0.11414541    
   29033    (1,29033)             0.21399188    
   29034    (1,29034)             0.16867226    
   29035    (1,29035)             0.24628270    
   29036    (1,29036)             0.11414851    
   29037    (1,29037)             0.24684493    
   29038    (1,29038)             0.25626224    
   29039    (1,29039)             9.91150834E-02
   29040    (1,29040)             0.23746993    
   29041    (1,29041)             0.24350346    
   29042    (1,29042)             0.24487946    
   29043    (1,29043)             0.21736677    
   29044    (1,29044)             0.24004975    
   29045    (1,29045)             0.21632945    
   29046    (1,29046)             0.21286728    
   29047    (1,29047)             0.18048631    
   29048    (1,29048)             0.22147379    
   29049    (1,29049)             0.31562393    
   29050    (1,29050)             0.18605979    
   29051    (1,29051)             0.32230828    
   29052    (1,29052)             0.25033043    
   29053    (1,29053)             0.24839865    
   29054    (1,29054)             0.25750269    
   29055    (1,29055)             0.24631436    
   29056    (1,29056)             0.24730577    
   29057    (1,29057)             0.19382033    
   29058    (1,29058)             0.17967848    
   29059    (1,29059)             0.23824398    
   29060    (1,29060)             0.23121657    
   29061    (1,29061)             0.24873828    
   29062    (1,29062)             0.33025069    
   29063    (1,29063)             0.27257983    
   29064    (1,29064)             0.27887596    
   29065    (1,29065)             0.22002044    
   29066    (1,29066)             0.23199720    
   29067    (1,29067)             0.20731982    
   29068    (1,29068)             0.25097946    
   29069    (1,29069)             0.10362533    
   29070    (1,29070)             0.18628501    
   29071    (1,29071)             0.20594823    
 -----------------------------------------------




 HEAD WILL BE SAVED ON UNIT 1018 AT END OF TIME STEP    1, STRESS PERIOD    1


  VOLUME BUDGET FOR ENTIRE MODEL AT END OF TIME STEP    1, STRESS PERIOD   1
  ---------------------------------------------------------------------------------------------------

     CUMULATIVE VOLUME      L**3       RATES FOR THIS TIME STEP      L**3/T          PACKAGE NAME    
     ------------------                 ------------------------                     ----------------

           IN:                                      IN:
           ---                                      ---
                 WEL =           0.0000                   WEL =           0.0000     WELL_PACKAGE                     
                 RCH =         344.4326                   RCH =         344.4326     RCH                              
                 EVT =           0.0000                   EVT =           0.0000     EVT                              
                 CHD =       9.7708E-03                   CHD =       9.7708E-03     CHD                              

            TOTAL IN =         344.4424              TOTAL IN =         344.4424

          OUT:                                     OUT:
          ----                                     ----
                 WEL =          63.1392                   WEL =          63.1392     WELL_PACKAGE                     
                 RCH =           0.0000                   RCH =           0.0000     RCH                              
                 EVT =           5.5318                   EVT =           5.5318     EVT                              
                 CHD =         275.7765                   CHD =         275.7765     CHD                              

           TOTAL OUT =         344.4474             TOTAL OUT =         344.4474

            IN - OUT =      -5.0326E-03              IN - OUT =      -5.0326E-03

 PERCENT DISCREPANCY =          -0.00     PERCENT DISCREPANCY =          -0.00




         TIME SUMMARY AT END OF TIME STEP    1 IN STRESS PERIOD    1
                    SECONDS     MINUTES      HOURS       DAYS        YEARS
                    -----------------------------------------------------------
   TIME STEP LENGTH  1.0000     1.66667E-02 2.77778E-04 1.15741E-05 3.16881E-08
 STRESS PERIOD TIME  1.0000     1.66667E-02 2.77778E-04 1.15741E-05 3.16881E-08
         TOTAL TIME  1.0000     1.66667E-02 2.77778E-04 1.15741E-05 3.16881E-08


end timestep

