                                   MODFLOW 6
                U.S. GEOLOGICAL SURVEY MODULAR HYDROLOGIC MODEL
                          GROUNDWATER FLOW MODEL (GWF)
                            VERSION 6.6.0 12/20/2024

   MODFLOW 6 compiled Dec 31 2024 17:10:16 with Intel(R) Fortran Intel(R) 64
   Compiler Classic for applications running on Intel(R) 64, Version 2021.7.0
                             Build 20220726_000000

This software has been approved for release by the U.S. Geological 
Survey (USGS). Although the software has been subjected to rigorous 
review, the USGS reserves the right to update the software as needed 
pursuant to further analysis and review. No warranty, expressed or 
implied, is made by the USGS or the U.S. Government as to the 
functionality of the software and related material nor shall the 
fact of release constitute any such warranty. Furthermore, the 
software is released on condition that neither the USGS nor the U.S. 
Government shall be held liable for any damages resulting from its 
authorized or unauthorized use. Also refer to the USGS Water 
Resources Software User Rights Notice for complete use, copyright, 
and distribution information.


As a work of the United States Government, this USGS product is 
in the public domain within the United States. You can copy, 
modify, distribute, and perform the work, even for commercial 
purposes, all without asking permission. Additionally, USGS 
waives copyright and related rights in the work worldwide 
through CC0 1.0 Universal Public Domain Dedication 
(https://creativecommons.org/publicdomain/zero/1.0/).

The following GNU Lesser General Public License (LGPL) libraries
are used in this USGS product:

    SPARSKIT version 2.0
      ilut, luson, and qsplit 
      (https://www-users.cse.umn.edu/~saad/software/SPARSKIT/)

    RCM - Reverse Cuthill McKee Ordering
      (https://people.math.sc.edu/Burkardt/f_src/rcm/rcm.html)

    BLAS - Basic Linear Algebra Subprograms Level 1
      (https://people.math.sc.edu/Burkardt/f_src/blas1_d/blas1_d.html)

    SPARSEKIT - Sparse Matrix Utility Package
      amux, dperm, dvperm, rperm, and cperm
      (https://people.sc.fsu.edu/~jburkardt/f77_src/sparsekit/sparsekit.html)

The following BSD-3 License libraries are used in this USGS product:

    Modern Fortran DAG Library
      Copyright (c) 2018, Jacob Williams
      All rights reserved.
      (https://github.com/jacobwilliams/daglib)

MODFLOW 6 compiler options: /O2 /heap-arrays:0 /fpe:0 /traceback /nologo /fpp
/c /module:win64\mod_mf6\ /object:win64\obj_mf6\

System command used to initiate simulation:
mf6

MODFLOW was compiled using uniform precision.

Real Variables
  KIND: 8
  TINY (smallest non-zero value):    2.225074-308
  HUGE (largest value):    1.797693+308
  PRECISION: 15
  SIZE IN BITS: 64

Integer Variables
  KIND: 4
  HUGE (largest value): 2147483647
  SIZE IN BITS: 32

Long Integer Variables
  KIND: 8
  HUGE (largest value): 9223372036854775807
  SIZE IN BITS: 64

Logical Variables
  KIND: 4
  SIZE IN BITS: 32
 
 NAMEFILE OPTIONS:
    FLOWS WILL BE SAVED TO BUDGET FILE SPECIFIED IN OUTPUT CONTROL
 END NAMEFILE OPTIONS:

 DISU -- UNSTRUCTURED GRID DISCRETIZATION PACKAGE, VERSION 2 : 3/27/2014 - INPUT READ FROM MEMPATH: __INPUT__/DISU_MODEL/DISU                         


 Setting Discretization Options
    Model length unit [0=UND, 1=FEET, 2=METERS, 3=CENTIMETERS] set as 2
    VERTICAL_OFFSET_TOLERANCE = .000000000000000
 End Setting Discretization Options

 Setting Discretization Dimensions
    NODES = 58768
    NJA = 382062
    NVERT = 235072
 End Setting Discretization Dimensions

 Setting Discretization Griddata
    TOP set from input file
    BOT set from input file
    AREA set from input file
 End Setting Discretization Griddata

 Setting Discretization Connectivity
    IAC set from input file
    JA set from input file
    IHC set from input file
    CL12 set from input file
    HWVA set from input file
    ANGLDEGX set from input file
 End Setting Discretization Connectivity

 Discretization Vertex data loaded
 Discretization Cell2d data loaded

 NPF -- NODE PROPERTY FLOW PACKAGE, VERSION 1, 3/30/2015 INPUT READ FROM MEMPATH: __INPUT__/DISU_MODEL/NPF                          


 IC -- Initial Conditions Package, Version 8, 3/28/2015 input read from mempath: __INPUT__/DISU_MODEL/IC                           


 Setting NPF Options
    Cell-by-cell flow information will be saved to binary file whenever ICBCFL is not zero.
    Specific discharge will be calculated at cell centers and written to DATA-SPDIS in budget file when requested.
 End Setting NPF Options

 Setting NPF Griddata
    ICELLTYPE set from input file
    K set from input file
    K33 not provided.  Setting K33 = K.
    K22 not provided.  Setting K22 = K.
 End Setting NPF Griddata


 WEL   -- WEL PACKAGE, VERSION 8, 2/22/2014 INPUT READ FROM MEMPATH: __INPUT__/DISU_MODEL/WELL_CASEC                   

 PROCESSING WEL BASE OPTIONS
    FLOWS WILL BE SAVED TO BUDGET FILE SPECIFIED IN OUTPUT CONTROL
 END OF WEL BASE OPTIONS

 PROCESSING WEL OPTIONS
 END OF WEL OPTIONS

 PROCESSING WEL BASE DIMENSIONS
    MAXBOUND =   43344
 END OF WEL BASE DIMENSIONS

 RCH   -- RCH PACKAGE, VERSION 8, 2/22/2014 INPUT READ FROM MEMPATH: __INPUT__/DISU_MODEL/RCH                          

 PROCESSING RCH BASE OPTIONS
    FLOWS WILL BE SAVED TO BUDGET FILE SPECIFIED IN OUTPUT CONTROL
    RCH FLOWS WILL BE PRINTED TO LISTING FILE.
 END OF RCH BASE OPTIONS

 PROCESSING RCH OPTIONS
    RECHARGE WILL BE APPLIED TO SPECIFIED CELL.
 END OF RCH OPTIONS

 PROCESSING RCH BASE DIMENSIONS
    MAXBOUND =   14517
 END OF RCH BASE DIMENSIONS

 EVT   -- EVT PACKAGE, VERSION 8, 2/22/2014 INPUT READ FROM MEMPATH: __INPUT__/DISU_MODEL/EVT                          

 PROCESSING EVT BASE OPTIONS
    FLOWS WILL BE SAVED TO BUDGET FILE SPECIFIED IN OUTPUT CONTROL
 END OF EVT BASE OPTIONS

 PROCESSING EVT OPTIONS
 END OF EVT OPTIONS

 PROCESSING EVT BASE DIMENSIONS
    MAXBOUND =   12409
 END OF EVT BASE DIMENSIONS

 PROCESSING EVT DIMENSIONS
    NSEG = 1
 END OF EVT DIMENSIONS

 CHD   -- CHD PACKAGE, VERSION 8, 2/22/2014 INPUT READ FROM MEMPATH: __INPUT__/DISU_MODEL/CHD                          

 PROCESSING CHD BASE OPTIONS
    FLOWS WILL BE SAVED TO BUDGET FILE SPECIFIED IN OUTPUT CONTROL
 END OF CHD BASE OPTIONS

 PROCESSING CHD BASE DIMENSIONS
    MAXBOUND =    9044
 END OF CHD BASE DIMENSIONS
    STRT set from input file
    BINARY GRID INFORMATION WILL BE WRITTEN TO:
      UNIT NUMBER: 1016
      FILE NAME: DISU_model.disu.grb

 OPENED DISU_model.disu.grb
 FILE TYPE:DATA(BINARY)   UNIT 1016   STATUS:REPLACE             
 FORMAT:UNFORMATTED            ACCESS:STREAM              
 ACTION:READWRITE           

      THE LAST TIME STEP WILL BE PRINTED
      THE LAST TIME STEP WILL BE PRINTED
 # File generated by Flopy version 3.9.1 on 01/21/2026 at 05:33:41.

 PROCESSING OC OPTIONS

    BUDGET INFORMATION WILL BE WRITTEN TO:
      UNIT NUMBER: 1017
      FILE NAME: quadtree_caseC.cbc

 OPENED quadtree_caseC.cbc
 FILE TYPE:DATA(BINARY)   UNIT 1017   STATUS:REPLACE             
 FORMAT:UNFORMATTED            ACCESS:STREAM              
 ACTION:READWRITE           

    HEAD INFORMATION WILL BE WRITTEN TO:
      UNIT NUMBER: 1018
      FILE NAME: quadtree_caseC.hds

 OPENED quadtree_caseC.hds
 FILE TYPE:DATA(BINARY)   UNIT 1018   STATUS:REPLACE             
 FORMAT:UNFORMATTED            ACCESS:STREAM              
 ACTION:READWRITE           

 END OF OC OPTIONS

start timestep kper="1" kstp="1" mode="normal"


 BEGIN READING OUTPUT CONTROL FOR STRESS PERIOD 1
      THE LAST TIME STEP WILL BE SAVED
      THE LAST TIME STEP WILL BE SAVED
      THE LAST TIME STEP WILL BE PRINTED

 END READING OUTPUT CONTROL FOR STRESS PERIOD 1

 CELL CONVERSIONS FOR ITER.=2  STEP=1  PERIOD=1   (NODE or LRC)
     DRY              (6384) DRY              (6562) DRY              (6563) DRY              (6564) DRY              (6768)
     DRY              (6769) DRY              (6770) DRY              (7229) DRY              (7230) DRY              (7431)
     DRY              (7432) DRY              (7691) DRY              (7692) DRY              (8203) DRY              (8204)
     DRY              (8205) DRY              (8206) DRY              (8461) DRY              (8462) DRY              (8463)
     DRY              (8732) DRY              (8733) DRY              (9298) DRY              (9299) DRY              (9588)
     DRY              (9589) DRY              (9590) DRY              (9878) DRY             (11145) DRY             (11146)
     DRY             (11448) DRY             (11449) DRY             (11747) DRY             (11748) DRY             (12340)
     DRY             (12341) DRY             (12342) DRY             (12607) DRY             (12868) DRY             (12870)
     DRY             (12871) DRY             (12872) DRY             (13129) DRY             (13130) DRY             (13131)
     DRY             (13132) DRY             (13358) DRY             (13359) DRY             (13360) DRY             (13361)
     DRY             (13362) DRY             (13586) DRY             (13826) DRY             (13827) DRY             (13828)
     DRY             (13987) DRY             (13988) DRY             (13989) DRY             (13990) DRY             (13991)
     DRY             (13992) DRY             (14009) DRY             (14010) DRY             (14011) DRY             (14156)
     DRY             (14157) DRY             (14158) DRY             (14159) DRY             (14298) DRY             (14377)
     DRY             (14378) DRY             (14391) DRY             (14392) DRY             (14393) DRY             (14454)
     DRY             (14479) DRY             (14480) DRY             (14510) DRY             (14511) DRY             (14512)
     DRY             (14513) DRY             (14514) DRY             (14515) DRY             (14516) DRY             (14517)
 UBDSV1 SAVING     FLOW-JA-FACE ON UNIT   1017 AT TIME STEP      1, STRESS PERIOD      1
 UBDSV06 SAVING       DATA-SPDIS IN MODEL DISU_MODEL       PACKAGE NPF             CONNECTED TO MODEL DISU_MODEL       PACKAGE NPF              ON UNIT   1017 AT TIME STEP      1, STRESS PERIOD      1
 UBDSV06 SAVING              WEL IN MODEL DISU_MODEL       PACKAGE DISU_MODEL      CONNECTED TO MODEL DISU_MODEL       PACKAGE WELL_CASEC       ON UNIT   1017 AT TIME STEP      1, STRESS PERIOD      1
 UBDSV06 SAVING              RCH IN MODEL DISU_MODEL       PACKAGE DISU_MODEL      CONNECTED TO MODEL DISU_MODEL       PACKAGE RCH              ON UNIT   1017 AT TIME STEP      1, STRESS PERIOD      1
 UBDSV06 SAVING              EVT IN MODEL DISU_MODEL       PACKAGE DISU_MODEL      CONNECTED TO MODEL DISU_MODEL       PACKAGE EVT              ON UNIT   1017 AT TIME STEP      1, STRESS PERIOD      1
 UBDSV06 SAVING              CHD IN MODEL DISU_MODEL       PACKAGE DISU_MODEL      CONNECTED TO MODEL DISU_MODEL       PACKAGE CHD              ON UNIT   1017 AT TIME STEP      1, STRESS PERIOD      1

 RCH PACKAGE (RCH) FLOW RATES   PERIOD      1   STEP        1
 -----------------------------------------------
   NUMBER   CELLID                    RATE      
 -----------------------------------------------
     1      (1)                   0.0000000     
     2      (2)                   0.0000000     
     3      (3)                   0.0000000     
     4      (4)                   0.0000000     
     5      (5)                   0.0000000     
     6      (6)                   0.0000000     
     7      (7)                   0.0000000     
     8      (8)                   0.0000000     
     9      (9)                   0.0000000     
     10     (10)                  0.0000000     
     11     (11)                  0.0000000     
     12     (12)                  0.0000000     
     13     (13)                  0.0000000     
     14     (14)                  0.0000000     
     15     (15)                  0.0000000     
     16     (16)                  0.0000000     
     17     (17)                  0.0000000     
     18     (18)                  0.0000000     
     19     (19)                  0.0000000     
     20     (20)                  0.0000000     
     21     (21)                  0.0000000     
     22     (22)                  0.0000000     
     23     (23)                  0.0000000     
     24     (24)                  0.0000000     
     25     (25)                  0.0000000     
     26     (26)                  0.0000000     
     27     (27)                  0.0000000     
     28     (28)                  0.0000000     
     29     (29)                  0.0000000     
     30     (30)                  0.0000000     
     31     (31)                  0.0000000     
     32     (32)                  0.0000000     
     33     (33)                  0.0000000     
     34     (34)                  0.0000000     
     35     (35)                  0.0000000     
     36     (36)                  0.0000000     
     37     (37)                  0.0000000     
     38     (38)                  0.0000000     
     39     (39)                  0.0000000     
     40     (40)                  0.0000000     
     41     (41)                  0.0000000     
     42     (42)                  0.0000000     
     43     (43)                  0.0000000     
     44     (44)                  0.0000000     
     45     (45)                  0.0000000     
     46     (46)                  0.0000000     
     47     (47)                  0.0000000     
     48     (48)                  0.0000000     
     49     (49)                  0.0000000     
     50     (50)                  0.0000000     
     51     (51)                  0.0000000     
     52     (52)                  0.0000000     
     53     (53)                  0.0000000     
     54     (54)                  0.0000000     
     55     (55)                  0.0000000     
     56     (56)                  0.0000000     
     57     (57)                  0.0000000     
     58     (58)                  0.0000000     
     59     (59)                  0.0000000     
     60     (60)                  0.0000000     
     61     (61)                  0.0000000     
     62     (62)                  0.0000000     
     63     (63)                  0.0000000     
     64     (64)                  0.0000000     
     65     (65)                  0.0000000     
     66     (66)                  0.0000000     
     67     (67)                  0.0000000     
     68     (68)                  0.0000000     
     69     (69)                  0.0000000     
     70     (70)                  0.0000000     
     71     (71)                  0.0000000     
     72     (72)                  0.0000000     
     73     (73)                  0.0000000     
     74     (74)                  0.0000000     
     75     (75)                  0.0000000     
     76     (76)                  0.0000000     
     77     (77)                  0.0000000     
     78     (78)                  0.0000000     
     79     (79)                  0.0000000     
     80     (80)                  0.0000000     
     81     (81)                  0.0000000     
     82     (82)                  0.0000000     
     83     (83)                  0.0000000     
     84     (84)                  0.0000000     
     85     (85)                  0.0000000     
     86     (86)                  0.0000000     
     87     (87)                  0.0000000     
     88     (88)                  0.0000000     
     89     (89)                  0.0000000     
     90     (90)                  0.0000000     
     91     (91)                  0.0000000     
     92     (92)                  0.0000000     
     93     (93)                  0.0000000     
     94     (94)                  6.11374245E-03
     95     (95)                  6.04641879E-03
     96     (96)                  6.11569503E-03
     97     (97)                  0.0000000     
     98     (98)                  0.0000000     
     99     (99)                  0.0000000     
    100     (100)                 0.0000000     
    101     (101)                 0.0000000     
    102     (102)                 0.0000000     
    103     (103)                 0.0000000     
    104     (104)                 0.0000000     
    105     (105)                 6.20061763E-03
    106     (106)                 0.0000000     
    107     (107)                 6.20567204E-03
    108     (108)                 6.31258379E-03
    109     (109)                 0.0000000     
    110     (110)                 0.0000000     
    111     (111)                 0.0000000     
    112     (112)                 0.0000000     
    113     (113)                 0.0000000     
    114     (114)                 0.0000000     
    115     (115)                 0.0000000     
    116     (116)                 0.0000000     
    117     (117)                 0.0000000     
    118     (118)                 0.0000000     
    119     (119)                 0.0000000     
    120     (120)                 0.0000000     
    121     (121)                 0.0000000     
    122     (122)                 0.0000000     
    123     (123)                 0.0000000     
    124     (124)                 0.0000000     
    125     (125)                 0.0000000     
    126     (126)                 0.0000000     
    127     (127)                 0.0000000     
    128     (128)                 0.0000000     
    129     (129)                 0.0000000     
    130     (130)                 0.0000000     
    131     (131)                 0.0000000     
    132     (132)                 0.0000000     
    133     (133)                 0.0000000     
    134     (134)                 0.0000000     
    135     (135)                 0.0000000     
    136     (136)                 0.0000000     
    137     (137)                 0.0000000     
    138     (138)                 0.0000000     
    139     (139)                 0.0000000     
    140     (140)                 0.0000000     
    141     (141)                 0.0000000     
    142     (142)                 0.0000000     
    143     (143)                 0.0000000     
    144     (144)                 0.0000000     
    145     (145)                 0.0000000     
    146     (146)                 0.0000000     
    147     (147)                 0.0000000     
    148     (148)                 0.0000000     
    149     (149)                 0.0000000     
    150     (150)                 0.0000000     
    151     (151)                 0.0000000     
    152     (152)                 0.0000000     
    153     (153)                 0.0000000     
    154     (154)                 0.0000000     
    155     (155)                 0.0000000     
    156     (156)                 0.0000000     
    157     (157)                 0.0000000     
    158     (158)                 0.0000000     
    159     (159)                 0.0000000     
    160     (160)                 0.0000000     
    161     (161)                 0.0000000     
    162     (162)                 0.0000000     
    163     (163)                 0.0000000     
    164     (164)                 0.0000000     
    165     (165)                 0.0000000     
    166     (166)                 0.0000000     
    167     (167)                 0.0000000     
    168     (168)                 0.0000000     
    169     (169)                 0.0000000     
    170     (170)                 0.0000000     
    171     (171)                 0.0000000     
    172     (172)                 0.0000000     
    173     (173)                 0.0000000     
    174     (174)                 0.0000000     
    175     (175)                 0.0000000     
    176     (176)                 0.0000000     
    177     (177)                 0.0000000     
    178     (178)                 0.0000000     
    179     (179)                 0.0000000     
    180     (180)                 0.0000000     
    181     (181)                 0.0000000     
    182     (182)                 0.0000000     
    183     (183)                 0.0000000     
    184     (184)                 0.0000000     
    185     (185)                 0.0000000     
    186     (186)                 0.0000000     
    187     (187)                 0.0000000     
    188     (188)                 0.0000000     
    189     (189)                 0.0000000     
    190     (190)                 0.0000000     
    191     (191)                 0.0000000     
    192     (192)                 0.0000000     
    193     (193)                 0.0000000     
    194     (194)                 0.0000000     
    195     (195)                 0.0000000     
    196     (196)                 0.0000000     
    197     (197)                 0.0000000     
    198     (198)                 0.0000000     
    199     (199)                 0.0000000     
    200     (200)                 0.0000000     
    201     (201)                 0.0000000     
    202     (202)                 0.0000000     
    203     (203)                 0.0000000     
    204     (204)                 0.0000000     
    205     (205)                 0.0000000     
    206     (206)                 0.0000000     
    207     (207)                 0.0000000     
    208     (208)                 0.0000000     
    209     (209)                 0.0000000     
    210     (210)                 0.0000000     
    211     (211)                 0.0000000     
    212     (212)                 0.0000000     
    213     (213)                 0.0000000     
    214     (214)                 0.0000000     
    215     (215)                 0.0000000     
    216     (216)                 0.0000000     
    217     (217)                 0.0000000     
    218     (218)                 0.0000000     
    219     (219)                 0.0000000     
    220     (220)                 0.0000000     
    221     (221)                 0.0000000     
    222     (222)                 0.0000000     
    223     (223)                 0.0000000     
    224     (224)                 0.0000000     
    225     (225)                 0.0000000     
    226     (226)                 0.0000000     
    227     (227)                 0.0000000     
    228     (228)                 0.0000000     
    229     (229)                 0.0000000     
    230     (230)                 0.0000000     
    231     (231)                 0.0000000     
    232     (232)                 0.0000000     
    233     (233)                 0.0000000     
    234     (234)                 0.0000000     
    235     (235)                 0.0000000     
    236     (236)                 0.0000000     
    237     (237)                 0.0000000     
    238     (238)                 0.0000000     
    239     (239)                 0.0000000     
    240     (240)                 0.0000000     
    241     (241)                 0.0000000     
    242     (242)                 0.0000000     
    243     (243)                 0.0000000     
    244     (244)                 6.45206015E-03
    245     (245)                 0.0000000     
    246     (246)                 0.0000000     
    247     (247)                 0.0000000     
    248     (248)                 0.0000000     
    249     (249)                 0.0000000     
    250     (250)                 0.0000000     
    251     (251)                 6.07144148E-03
    252     (252)                 6.03504371E-03
    253     (253)                 6.27389261E-03
    254     (254)                 6.18698010E-03
    255     (255)                 6.34619302E-03
    256     (256)                 6.25935844E-03
    257     (257)                 2.45402556E-02
    258     (258)                 0.0000000     
    259     (259)                 6.01509911E-03
    260     (260)                 6.02685830E-03
    261     (261)                 6.04725421E-03
    262     (262)                 2.44375061E-02
    263     (263)                 2.44736534E-02
    264     (264)                 2.48584441E-02
    265     (265)                 2.51806438E-02
    266     (266)                 6.48328885E-03
    267     (267)                 0.0000000     
    268     (268)                 6.52439343E-03
    269     (269)                 6.66413238E-03
    270     (270)                 2.56971349E-02
    271     (271)                 2.67383120E-02
    272     (272)                 0.0000000     
    273     (273)                 0.0000000     
    274     (274)                 6.80878816E-03
    275     (275)                 6.95483876E-03
    276     (276)                 0.0000000     
    277     (277)                 0.0000000     
    278     (278)                 7.09941176E-03
    279     (279)                 0.0000000     
    280     (280)                 2.78829543E-02
    281     (281)                 2.90191818E-02
    282     (282)                 0.0000000     
    283     (283)                 0.0000000     
    284     (284)                 0.0000000     
    285     (285)                 0.0000000     
    286     (286)                 0.0000000     
    287     (287)                 0.0000000     
    288     (288)                 0.0000000     
    289     (289)                 0.0000000     
    290     (290)                 7.42692994E-03
    291     (291)                 0.0000000     
    292     (292)                 7.48641572E-03
    293     (293)                 7.61044288E-03
    294     (294)                 0.0000000     
    295     (295)                 0.0000000     
    296     (296)                 7.72709262E-03
    297     (297)                 7.83608069E-03
    298     (298)                 0.0000000     
    299     (299)                 0.0000000     
    300     (300)                 0.0000000     
    301     (301)                 0.0000000     
    302     (302)                 0.0000000     
    303     (303)                 0.0000000     
    304     (304)                 0.0000000     
    305     (305)                 0.0000000     
    306     (306)                 0.0000000     
    307     (307)                 0.0000000     
    308     (308)                 0.0000000     
    309     (309)                 0.0000000     
    310     (310)                 0.0000000     
    311     (311)                 0.0000000     
    312     (312)                 0.0000000     
    313     (313)                 0.0000000     
    314     (314)                 0.0000000     
    315     (315)                 0.0000000     
    316     (316)                 0.0000000     
    317     (317)                 0.0000000     
    318     (318)                 0.0000000     
    319     (319)                 0.0000000     
    320     (320)                 0.0000000     
    321     (321)                 0.0000000     
    322     (322)                 0.0000000     
    323     (323)                 0.0000000     
    324     (324)                 0.0000000     
    325     (325)                 0.0000000     
    326     (326)                 0.0000000     
    327     (327)                 0.0000000     
    328     (328)                 0.0000000     
    329     (329)                 0.0000000     
    330     (330)                 0.0000000     
    331     (331)                 0.0000000     
    332     (332)                 0.0000000     
    333     (333)                 0.0000000     
    334     (334)                 0.0000000     
    335     (335)                 0.0000000     
    336     (336)                 0.0000000     
    337     (337)                 0.0000000     
    338     (338)                 0.0000000     
    339     (339)                 0.0000000     
    340     (340)                 0.0000000     
    341     (341)                 0.0000000     
    342     (342)                 0.0000000     
    343     (343)                 0.0000000     
    344     (344)                 0.0000000     
    345     (345)                 0.0000000     
    346     (346)                 0.0000000     
    347     (347)                 0.0000000     
    348     (348)                 0.0000000     
    349     (349)                 0.0000000     
    350     (350)                 0.0000000     
    351     (351)                 0.0000000     
    352     (352)                 0.0000000     
    353     (353)                 0.0000000     
    354     (354)                 0.0000000     
    355     (355)                 0.0000000     
    356     (356)                 0.0000000     
    357     (357)                 0.0000000     
    358     (358)                 0.0000000     
    359     (359)                 0.0000000     
    360     (360)                 0.0000000     
    361     (361)                 0.0000000     
    362     (362)                 0.0000000     
    363     (363)                 0.0000000     
    364     (364)                 0.0000000     
    365     (365)                 0.0000000     
    366     (366)                 0.0000000     
    367     (367)                 0.0000000     
    368     (368)                 0.0000000     
    369     (369)                 0.0000000     
    370     (370)                 0.0000000     
    371     (371)                 0.0000000     
    372     (372)                 0.0000000     
    373     (373)                 0.0000000     
    374     (374)                 0.0000000     
    375     (375)                 0.0000000     
    376     (376)                 0.0000000     
    377     (377)                 0.0000000     
    378     (378)                 0.0000000     
    379     (379)                 0.0000000     
    380     (380)                 0.0000000     
    381     (381)                 0.0000000     
    382     (382)                 0.0000000     
    383     (383)                 0.0000000     
    384     (384)                 0.0000000     
    385     (385)                 0.0000000     
    386     (386)                 0.0000000     
    387     (387)                 0.0000000     
    388     (388)                 0.0000000     
    389     (389)                 0.0000000     
    390     (390)                 0.0000000     
    391     (391)                 0.0000000     
    392     (392)                 0.0000000     
    393     (393)                 0.0000000     
    394     (394)                 0.0000000     
    395     (395)                 0.0000000     
    396     (396)                 0.0000000     
    397     (397)                 0.0000000     
    398     (398)                 0.0000000     
    399     (399)                 0.0000000     
    400     (400)                 0.0000000     
    401     (401)                 0.0000000     
    402     (402)                 0.0000000     
    403     (403)                 0.0000000     
    404     (404)                 0.0000000     
    405     (405)                 8.48077487E-03
    406     (406)                 8.48758495E-03
    407     (407)                 0.0000000     
    408     (408)                 0.0000000     
    409     (409)                 0.0000000     
    410     (410)                 0.0000000     
    411     (411)                 0.0000000     
    412     (412)                 0.0000000     
    413     (413)                 0.0000000     
    414     (414)                 0.0000000     
    415     (415)                 0.0000000     
    416     (416)                 0.0000000     
    417     (417)                 8.49393724E-03
    418     (418)                 8.49952737E-03
    419     (419)                 0.0000000     
    420     (420)                 8.50077307E-03
    421     (421)                 8.50403213E-03
    422     (422)                 8.50711524E-03
    423     (423)                 0.0000000     
    424     (424)                 0.0000000     
    425     (425)                 0.0000000     
    426     (426)                 8.46517426E-03
    427     (427)                 0.0000000     
    428     (428)                 0.0000000     
    429     (429)                 8.45733720E-03
    430     (430)                 8.44654643E-03
    431     (431)                 8.49992699E-03
    432     (432)                 8.47668616E-03
    433     (433)                 8.50843294E-03
    434     (434)                 8.48790984E-03
    435     (435)                 3.38983684E-02
    436     (436)                 0.0000000     
    437     (437)                 0.0000000     
    438     (438)                 0.0000000     
    439     (439)                 0.0000000     
    440     (440)                 0.0000000     
    441     (441)                 0.0000000     
    442     (442)                 0.0000000     
    443     (443)                 0.0000000     
    444     (444)                 8.45090860E-03
    445     (445)                 8.43573531E-03
    446     (446)                 8.46944898E-03
    447     (447)                 8.45694357E-03
    448     (448)                 0.0000000     
    449     (449)                 0.0000000     
    450     (450)                 8.44074052E-03
    451     (451)                 8.42053487E-03
    452     (452)                 0.0000000     
    453     (453)                 0.0000000     
    454     (454)                 0.0000000     
    455     (455)                 0.0000000     
    456     (456)                 0.0000000     
    457     (457)                 0.0000000     
    458     (458)                 0.0000000     
    459     (459)                 0.0000000     
    460     (460)                 0.0000000     
    461     (461)                 0.0000000     
    462     (462)                 0.0000000     
    463     (463)                 0.0000000     
    464     (464)                 0.0000000     
    465     (465)                 0.0000000     
    466     (466)                 0.0000000     
    467     (467)                 0.0000000     
    468     (468)                 0.0000000     
    469     (469)                 0.0000000     
    470     (470)                 0.0000000     
    471     (471)                 0.0000000     
    472     (472)                 0.0000000     
    473     (473)                 0.0000000     
    474     (474)                 0.0000000     
    475     (475)                 0.0000000     
    476     (476)                 0.0000000     
    477     (477)                 0.0000000     
    478     (478)                 0.0000000     
    479     (479)                 0.0000000     
    480     (480)                 8.10025028E-03
    481     (481)                 0.0000000     
    482     (482)                 0.0000000     
    483     (483)                 0.0000000     
    484     (484)                 0.0000000     
    485     (485)                 0.0000000     
    486     (486)                 0.0000000     
    487     (487)                 0.0000000     
    488     (488)                 0.0000000     
    489     (489)                 0.0000000     
    490     (490)                 0.0000000     
    491     (491)                 8.03089895E-03
    492     (492)                 7.95461144E-03
    493     (493)                 0.0000000     
    494     (494)                 7.69792975E-03
    495     (495)                 7.87128391E-03
    496     (496)                 7.78094974E-03
    497     (497)                 0.0000000     
    498     (498)                 0.0000000     
    499     (499)                 0.0000000     
    500     (500)                 0.0000000     
    501     (501)                 0.0000000     
    502     (502)                 0.0000000     
    503     (503)                 7.27108818E-03
    504     (504)                 7.14426411E-03
    505     (505)                 7.59382063E-03
    506     (506)                 7.48313298E-03
    507     (507)                 7.68384134E-03
    508     (508)                 7.58046794E-03
    509     (509)                 2.94407517E-02
    510     (510)                 0.0000000     
    511     (511)                 6.78749702E-03
    512     (512)                 7.01546787E-03
    513     (513)                 6.88758236E-03
    514     (514)                 2.66016133E-02
    515     (515)                 2.84921139E-02
    516     (516)                 2.75797382E-02
    517     (517)                 2.57819714E-02
    518     (518)                 2.52875755E-02
    519     (519)                 2.68268380E-02
    520     (520)                 2.63696872E-02
    521     (521)                 0.10341606    
    522     (522)                 0.10953797    
    523     (523)                 0.11781140    
    524     (524)                 3.06020524E-02
    525     (525)                 3.14848257E-02
    526     (526)                 3.12392445E-02
    527     (527)                 3.19853906E-02
    528     (528)                 7.97746544E-03
    529     (529)                 8.06735592E-03
    530     (530)                 8.03412900E-03
    531     (531)                 8.11992354E-03
    532     (532)                 0.0000000     
    533     (533)                 0.0000000     
    534     (534)                 8.19877651E-03
    535     (535)                 8.27095431E-03
    536     (536)                 3.26674348E-02
    537     (537)                 3.32454536E-02
    538     (538)                 0.0000000     
    539     (539)                 0.0000000     
    540     (540)                 0.0000000     
    541     (541)                 0.0000000     
    542     (542)                 0.0000000     
    543     (543)                 0.0000000     
    544     (544)                 0.0000000     
    545     (545)                 0.0000000     
    546     (546)                 3.37269598E-02
    547     (547)                 8.48799273E-03
    548     (548)                 8.53346934E-03
    549     (549)                 8.52724302E-03
    550     (550)                 8.56964740E-03
    551     (551)                 0.0000000     
    552     (552)                 0.0000000     
    553     (553)                 0.0000000     
    554     (554)                 0.0000000     
    555     (555)                 0.0000000     
    556     (556)                 0.0000000     
    557     (557)                 0.0000000     
    558     (558)                 0.0000000     
    559     (559)                 0.0000000     
    560     (560)                 8.60940675E-03
    561     (561)                 8.60723372E-03
    562     (562)                 8.64017505E-03
    563     (563)                 0.0000000     
    564     (564)                 0.0000000     
    565     (565)                 8.66861988E-03
    566     (566)                 8.69269286E-03
    567     (567)                 0.0000000     
    568     (568)                 0.0000000     
    569     (569)                 0.0000000     
    570     (570)                 0.0000000     
    571     (571)                 0.0000000     
    572     (572)                 0.0000000     
    573     (573)                 0.0000000     
    574     (574)                 0.0000000     
    575     (575)                 0.0000000     
    576     (576)                 0.0000000     
    577     (577)                 8.71249532E-03
    578     (578)                 8.72810740E-03
    579     (579)                 8.71916766E-03
    580     (580)                 8.72826153E-03
    581     (581)                 8.73959041E-03
    582     (582)                 8.74698982E-03
    583     (583)                 0.0000000     
    584     (584)                 0.0000000     
    585     (585)                 0.0000000     
    586     (586)                 0.0000000     
    587     (587)                 0.0000000     
    588     (588)                 0.0000000     
    589     (589)                 0.0000000     
    590     (590)                 0.0000000     
    591     (591)                 8.73322603E-03
    592     (592)                 8.73410607E-03
    593     (593)                 8.75033948E-03
    594     (594)                 8.74966597E-03
    595     (595)                 0.0000000     
    596     (596)                 0.0000000     
    597     (597)                 8.74499458E-03
    598     (598)                 8.73635573E-03
    599     (599)                 0.0000000     
    600     (600)                 0.0000000     
    601     (601)                 0.0000000     
    602     (602)                 0.0000000     
    603     (603)                 0.0000000     
    604     (604)                 0.0000000     
    605     (605)                 0.0000000     
    606     (606)                 0.0000000     
    607     (607)                 0.0000000     
    608     (608)                 0.0000000     
    609     (609)                 8.72379291E-03
    610     (610)                 0.0000000     
    611     (611)                 0.0000000     
    612     (612)                 0.0000000     
    613     (613)                 0.0000000     
    614     (614)                 0.0000000     
    615     (615)                 0.0000000     
    616     (616)                 0.0000000     
    617     (617)                 0.0000000     
    618     (618)                 0.0000000     
    619     (619)                 0.0000000     
    620     (620)                 0.0000000     
    621     (621)                 0.0000000     
    622     (622)                 0.0000000     
    623     (623)                 0.0000000     
    624     (624)                 0.0000000     
    625     (625)                 0.0000000     
    626     (626)                 0.0000000     
    627     (627)                 0.0000000     
    628     (628)                 0.0000000     
    629     (629)                 0.0000000     
    630     (630)                 0.0000000     
    631     (631)                 0.0000000     
    632     (632)                 0.0000000     
    633     (633)                 0.0000000     
    634     (634)                 0.0000000     
    635     (635)                 0.0000000     
    636     (636)                 0.0000000     
    637     (637)                 0.0000000     
    638     (638)                 0.0000000     
    639     (639)                 0.0000000     
    640     (640)                 0.0000000     
    641     (641)                 0.0000000     
    642     (642)                 0.0000000     
    643     (643)                 0.0000000     
    644     (644)                 0.0000000     
    645     (645)                 0.0000000     
    646     (646)                 0.0000000     
    647     (647)                 0.0000000     
    648     (648)                 0.0000000     
    649     (649)                 8.39320392E-03
    650     (650)                 0.0000000     
    651     (651)                 0.0000000     
    652     (652)                 0.0000000     
    653     (653)                 0.0000000     
    654     (654)                 0.0000000     
    655     (655)                 0.0000000     
    656     (656)                 0.0000000     
    657     (657)                 0.0000000     
    658     (658)                 0.0000000     
    659     (659)                 0.0000000     
    660     (660)                 8.39303554E-03
    661     (661)                 8.39221661E-03
    662     (662)                 0.0000000     
    663     (663)                 0.0000000     
    664     (664)                 8.39131066E-03
    665     (665)                 8.39062752E-03
    666     (666)                 0.0000000     
    667     (667)                 0.0000000     
    668     (668)                 0.0000000     
    669     (669)                 0.0000000     
    670     (670)                 0.0000000     
    671     (671)                 0.0000000     
    672     (672)                 0.0000000     
    673     (673)                 0.0000000     
    674     (674)                 0.0000000     
    675     (675)                 0.0000000     
    676     (676)                 8.39044918E-03
    677     (677)                 8.39110560E-03
    678     (678)                 8.40528304E-03
    679     (679)                 8.40865720E-03
    680     (680)                 8.39287962E-03
    681     (681)                 8.39599620E-03
    682     (682)                 0.0000000     
    683     (683)                 0.0000000     
    684     (684)                 8.42458700E-03
    685     (685)                 8.43024706E-03
    686     (686)                 0.0000000     
    687     (687)                 8.45309611E-03
    688     (688)                 8.43698139E-03
    689     (689)                 8.44472480E-03
    690     (690)                 3.36399092E-02
    691     (691)                 3.37001618E-02
    692     (692)                 8.46071685E-03
    693     (693)                 8.46881922E-03
    694     (694)                 8.45335194E-03
    695     (695)                 8.46268156E-03
    696     (696)                 3.39182756E-02
    697     (697)                 3.37815428E-02
    698     (698)                 3.38778262E-02
    699     (699)                 3.39897237E-02
    700     (700)                 3.40499519E-02
    701     (701)                 3.39795254E-02
    702     (702)                 3.40751730E-02
    703     (703)                 3.40877188E-02
    704     (704)                 3.40148442E-02
    705     (705)                 3.41526306E-02
    706     (706)                 3.41263653E-02
    707     (707)                 3.39741270E-02
    708     (708)                 3.38800525E-02
    709     (709)                 3.41323033E-02
    710     (710)                 3.40896300E-02
    711     (711)                 3.37237677E-02
    712     (712)                 8.37085886E-03
    713     (713)                 8.33565661E-03
    714     (714)                 8.40968913E-03
    715     (715)                 8.37873309E-03
    716     (716)                 3.39909680E-02
    717     (717)                 3.38300863E-02
    718     (718)                 3.31916101E-02
    719     (719)                 3.28858470E-02
    720     (720)                 3.36015763E-02
    721     (721)                 3.33872095E-02
    722     (722)                 3.24035124E-02
    723     (723)                 3.18216092E-02
    724     (724)                 3.30127876E-02
    725     (725)                 3.25584153E-02
    726     (726)                 3.11419791E-02
    727     (727)                 3.03797226E-02
    728     (728)                 3.20269012E-02
    729     (729)                 3.14308790E-02
    730     (730)                 0.11925839    
    731     (731)                 0.11473065    
    732     (732)                 0.11501176    
    733     (733)                 0.11921985    
    734     (734)                 0.12522383    
    735     (735)                 0.13053905    
    736     (736)                 0.13478495    
    737     (737)                 3.40955939E-02
    738     (738)                 3.44319699E-02
    739     (739)                 3.44854370E-02
    740     (740)                 3.47601801E-02
    741     (741)                 3.46969137E-02
    742     (742)                 3.48945343E-02
    743     (743)                 3.49744866E-02
    744     (744)                 3.51302997E-02
    745     (745)                 3.50275863E-02
    746     (746)                 3.50975680E-02
    747     (747)                 3.52285423E-02
    748     (748)                 3.52691478E-02
    749     (749)                 3.51049976E-02
    750     (750)                 3.50498835E-02
    751     (751)                 3.52512615E-02
    752     (752)                 3.51736489E-02
    753     (753)                 8.73566420E-03
    754     (754)                 8.71781905E-03
    755     (755)                 8.74834049E-03
    756     (756)                 8.72913988E-03
    757     (757)                 0.0000000     
    758     (758)                 0.0000000     
    759     (759)                 8.70616838E-03
    760     (760)                 0.0000000     
    761     (761)                 3.50353822E-02
    762     (762)                 8.71713564E-03
    763     (763)                 0.0000000     
    764     (764)                 8.72914641E-03
    765     (765)                 8.70010523E-03
    766     (766)                 0.0000000     
    767     (767)                 0.0000000     
    768     (768)                 0.0000000     
    769     (769)                 0.0000000     
    770     (770)                 0.0000000     
    771     (771)                 0.0000000     
    772     (772)                 0.0000000     
    773     (773)                 0.0000000     
    774     (774)                 0.0000000     
    775     (775)                 0.0000000     
    776     (776)                 0.0000000     
    777     (777)                 0.0000000     
    778     (778)                 0.0000000     
    779     (779)                 0.0000000     
    780     (780)                 0.0000000     
    781     (781)                 0.0000000     
    782     (782)                 0.0000000     
    783     (783)                 0.0000000     
    784     (784)                 0.0000000     
    785     (785)                 0.0000000     
    786     (786)                 0.0000000     
    787     (787)                 0.0000000     
    788     (788)                 0.0000000     
    789     (789)                 0.0000000     
    790     (790)                 0.0000000     
    791     (791)                 0.0000000     
    792     (792)                 0.0000000     
    793     (793)                 0.0000000     
    794     (794)                 0.0000000     
    795     (795)                 0.0000000     
    796     (796)                 0.0000000     
    797     (797)                 0.0000000     
    798     (798)                 0.0000000     
    799     (799)                 0.0000000     
    800     (800)                 0.0000000     
    801     (801)                 0.0000000     
    802     (802)                 0.0000000     
    803     (803)                 0.0000000     
    804     (804)                 0.0000000     
    805     (805)                 0.0000000     
    806     (806)                 0.0000000     
    807     (807)                 0.0000000     
    808     (808)                 0.0000000     
    809     (809)                 0.0000000     
    810     (810)                 0.0000000     
    811     (811)                 0.0000000     
    812     (812)                 0.0000000     
    813     (813)                 0.0000000     
    814     (814)                 0.0000000     
    815     (815)                 0.0000000     
    816     (816)                 0.0000000     
    817     (817)                 0.0000000     
    818     (818)                 0.0000000     
    819     (819)                 0.0000000     
    820     (820)                 0.0000000     
    821     (821)                 0.0000000     
    822     (822)                 0.0000000     
    823     (823)                 0.0000000     
    824     (824)                 0.0000000     
    825     (825)                 0.0000000     
    826     (826)                 0.0000000     
    827     (827)                 0.0000000     
    828     (828)                 0.0000000     
    829     (829)                 0.0000000     
    830     (830)                 0.0000000     
    831     (831)                 0.0000000     
    832     (832)                 8.37775836E-03
    833     (833)                 8.14453969E-03
    834     (834)                 8.37625160E-03
    835     (835)                 0.0000000     
    836     (836)                 0.0000000     
    837     (837)                 0.0000000     
    838     (838)                 0.0000000     
    839     (839)                 0.0000000     
    840     (840)                 8.37487344E-03
    841     (841)                 0.0000000     
    842     (842)                 8.37366160E-03
    843     (843)                 8.38312683E-03
    844     (844)                 8.38616554E-03
    845     (845)                 8.38046205E-03
    846     (846)                 8.38221702E-03
    847     (847)                 3.35370010E-02
    848     (848)                 3.35063461E-02
    849     (849)                 3.34860627E-02
    850     (850)                 3.35198952E-02
    851     (851)                 3.34976128E-02
    852     (852)                 3.34433487E-02
    853     (853)                 3.33959223E-02
    854     (854)                 3.34844290E-02
    855     (855)                 3.34916879E-02
    856     (856)                 3.33639190E-02
    857     (857)                 3.33590170E-02
    858     (858)                 0.13397994    
    859     (859)                 0.13483960    
    860     (860)                 0.13604437    
    861     (861)                 0.13717477    
    862     (862)                 0.13754913    
    863     (863)                 0.13749750    
    864     (864)                 0.13658637    
    865     (865)                 0.13541203    
    866     (866)                 0.13313669    
    867     (867)                 0.13052688    
    868     (868)                 0.12849079    
    869     (869)                 0.12920177    
    870     (870)                 0.13108257    
    871     (871)                 0.13395519    
    872     (872)                 0.13662295    
    873     (873)                 0.13898565    
    874     (874)                 0.14073867    
    875     (875)                 0.14182556    
    876     (876)                 0.14219378    
    877     (877)                 0.14176578    
    878     (878)                 3.51526628E-02
    879     (879)                 8.74223412E-03
    880     (880)                 8.71217576E-03
    881     (881)                 8.75642147E-03
    882     (882)                 8.72548720E-03
    883     (883)                 3.52844877E-02
    884     (884)                 3.50569469E-02
    885     (885)                 0.0000000     
    886     (886)                 0.0000000     
    887     (887)                 8.69108070E-03
    888     (888)                 8.65340099E-03
    889     (889)                 0.0000000     
    890     (890)                 0.0000000     
    891     (891)                 0.0000000     
    892     (892)                 0.0000000     
    893     (893)                 3.47741186E-02
    894     (894)                 8.62658535E-03
    895     (895)                 8.58295960E-03
    896     (896)                 8.64117373E-03
    897     (897)                 8.59710951E-03
    898     (898)                 0.0000000     
    899     (899)                 0.0000000     
    900     (900)                 0.0000000     
    901     (901)                 0.0000000     
    902     (902)                 0.0000000     
    903     (903)                 0.0000000     
    904     (904)                 0.0000000     
    905     (905)                 0.0000000     
    906     (906)                 0.0000000     
    907     (907)                 0.0000000     
    908     (908)                 8.55090202E-03
    909     (909)                 0.0000000     
    910     (910)                 0.0000000     
    911     (911)                 0.0000000     
    912     (912)                 0.0000000     
    913     (913)                 0.0000000     
    914     (914)                 0.0000000     
    915     (915)                 0.0000000     
    916     (916)                 0.0000000     
    917     (917)                 0.0000000     
    918     (918)                 0.0000000     
    919     (919)                 0.0000000     
    920     (920)                 0.0000000     
    921     (921)                 0.0000000     
    922     (922)                 0.0000000     
    923     (923)                 0.0000000     
    924     (924)                 0.0000000     
    925     (925)                 0.0000000     
    926     (926)                 0.0000000     
    927     (927)                 0.0000000     
    928     (928)                 0.0000000     
    929     (929)                 0.0000000     
    930     (930)                 0.0000000     
    931     (931)                 0.0000000     
    932     (932)                 0.0000000     
    933     (933)                 0.0000000     
    934     (934)                 0.0000000     
    935     (935)                 0.0000000     
    936     (936)                 0.0000000     
    937     (937)                 0.0000000     
    938     (938)                 0.0000000     
    939     (939)                 0.0000000     
    940     (940)                 0.0000000     
    941     (941)                 0.0000000     
    942     (942)                 0.0000000     
    943     (943)                 0.0000000     
    944     (944)                 0.0000000     
    945     (945)                 0.0000000     
    946     (946)                 0.0000000     
    947     (947)                 0.0000000     
    948     (948)                 0.0000000     
    949     (949)                 0.0000000     
    950     (950)                 0.0000000     
    951     (951)                 0.0000000     
    952     (952)                 0.0000000     
    953     (953)                 0.0000000     
    954     (954)                 0.0000000     
    955     (955)                 0.0000000     
    956     (956)                 0.0000000     
    957     (957)                 0.0000000     
    958     (958)                 0.0000000     
    959     (959)                 0.0000000     
    960     (960)                 0.0000000     
    961     (961)                 0.0000000     
    962     (962)                 0.0000000     
    963     (963)                 0.0000000     
    964     (964)                 0.0000000     
    965     (965)                 0.0000000     
    966     (966)                 0.0000000     
    967     (967)                 0.0000000     
    968     (968)                 0.0000000     
    969     (969)                 0.0000000     
    970     (970)                 0.0000000     
    971     (971)                 0.0000000     
    972     (972)                 0.0000000     
    973     (973)                 0.0000000     
    974     (974)                 0.0000000     
    975     (975)                 0.0000000     
    976     (976)                 0.0000000     
    977     (977)                 0.0000000     
    978     (978)                 0.0000000     
    979     (979)                 0.0000000     
    980     (980)                 0.0000000     
    981     (981)                 0.0000000     
    982     (982)                 0.0000000     
    983     (983)                 0.0000000     
    984     (984)                 0.0000000     
    985     (985)                 0.0000000     
    986     (986)                 0.0000000     
    987     (987)                 0.0000000     
    988     (988)                 0.0000000     
    989     (989)                 0.0000000     
    990     (990)                 0.0000000     
    991     (991)                 0.0000000     
    992     (992)                 0.0000000     
    993     (993)                 0.0000000     
    994     (994)                 0.0000000     
    995     (995)                 0.0000000     
    996     (996)                 0.0000000     
    997     (997)                 0.0000000     
    998     (998)                 0.0000000     
    999     (999)                 0.0000000     
    1000    (1000)                0.0000000     
    1001    (1001)                0.0000000     
    1002    (1002)                0.0000000     
    1003    (1003)                0.0000000     
    1004    (1004)                0.0000000     
    1005    (1005)                0.0000000     
    1006    (1006)                0.0000000     
    1007    (1007)                0.0000000     
    1008    (1008)                0.0000000     
    1009    (1009)                0.0000000     
    1010    (1010)                0.0000000     
    1011    (1011)                0.0000000     
    1012    (1012)                0.0000000     
    1013    (1013)                0.0000000     
    1014    (1014)                0.0000000     
    1015    (1015)                0.0000000     
    1016    (1016)                0.0000000     
    1017    (1017)                0.0000000     
    1018    (1018)                0.0000000     
    1019    (1019)                8.37266335E-03
    1020    (1020)                8.37001979E-03
    1021    (1021)                8.37193710E-03
    1022    (1022)                0.0000000     
    1023    (1023)                0.0000000     
    1024    (1024)                0.0000000     
    1025    (1025)                8.36973904E-03
    1026    (1026)                8.37118854E-03
    1027    (1027)                8.37155409E-03
    1028    (1028)                8.37287886E-03
    1029    (1029)                8.37159969E-03
    1030    (1030)                3.34797120E-02
    1031    (1031)                3.34308985E-02
    1032    (1032)                3.34553061E-02
    1033    (1033)                3.33739321E-02
    1034    (1034)                0.13306146    
    1035    (1035)                0.13252206    
    1036    (1036)                0.13274768    
    1037    (1037)                0.13393215    
    1038    (1038)                0.13575205    
    1039    (1039)                0.13765097    
    1040    (1040)                0.13890998    
    1041    (1041)                0.13977434    
    1042    (1042)                0.14030345    
    1043    (1043)                0.14100827    
    1044    (1044)                0.14134777    
    1045    (1045)                0.14191988    
    1046    (1046)                0.14346251    
    1047    (1047)                0.14337122    
    1048    (1048)                0.14287557    
    1049    (1049)                0.14259825    
    1050    (1050)                0.14263720    
    1051    (1051)                0.14314188    
    1052    (1052)                0.14366133    
    1053    (1053)                0.14394662    
    1054    (1054)                0.14380591    
    1055    (1055)                0.14307005    
    1056    (1056)                0.14158480    
    1057    (1057)                3.49120311E-02
    1058    (1058)                3.45784961E-02
    1059    (1059)                3.50700994E-02
    1060    (1060)                3.47391542E-02
    1061    (1061)                8.56690012E-03
    1062    (1062)                8.51896319E-03
    1063    (1063)                8.58515723E-03
    1064    (1064)                8.53726792E-03
    1065    (1065)                0.0000000     
    1066    (1066)                0.0000000     
    1067    (1067)                8.48857057E-03
    1068    (1068)                8.43987430E-03
    1069    (1069)                3.43724370E-02
    1070    (1070)                3.39878775E-02
    1071    (1071)                0.0000000     
    1072    (1072)                0.0000000     
    1073    (1073)                8.39207522E-03
    1074    (1074)                8.34612591E-03
    1075    (1075)                0.0000000     
    1076    (1076)                0.0000000     
    1077    (1077)                8.30299687E-03
    1078    (1078)                0.0000000     
    1079    (1079)                3.36103697E-02
    1080    (1080)                3.32692177E-02
    1081    (1081)                0.0000000     
    1082    (1082)                0.0000000     
    1083    (1083)                0.0000000     
    1084    (1084)                8.19955517E-03
    1085    (1085)                0.0000000     
    1086    (1086)                0.0000000     
    1087    (1087)                8.17619135E-03
    1088    (1088)                8.15922222E-03
    1089    (1089)                3.29934938E-02
    1090    (1090)                3.28064981E-02
    1091    (1091)                0.0000000     
    1092    (1092)                0.0000000     
    1093    (1093)                0.0000000     
    1094    (1094)                0.0000000     
    1095    (1095)                0.0000000     
    1096    (1096)                0.0000000     
    1097    (1097)                0.0000000     
    1098    (1098)                0.0000000     
    1099    (1099)                8.17074445E-03
    1100    (1100)                0.0000000     
    1101    (1101)                8.19662862E-03
    1102    (1102)                8.19234683E-03
    1103    (1103)                0.0000000     
    1104    (1104)                0.0000000     
    1105    (1105)                8.19439001E-03
    1106    (1106)                0.0000000     
    1107    (1107)                0.0000000     
    1108    (1108)                0.0000000     
    1109    (1109)                0.0000000     
    1110    (1110)                0.0000000     
    1111    (1111)                0.0000000     
    1112    (1112)                0.0000000     
    1113    (1113)                0.0000000     
    1114    (1114)                0.0000000     
    1115    (1115)                0.0000000     
    1116    (1116)                0.0000000     
    1117    (1117)                0.0000000     
    1118    (1118)                0.0000000     
    1119    (1119)                0.0000000     
    1120    (1120)                0.0000000     
    1121    (1121)                0.0000000     
    1122    (1122)                0.0000000     
    1123    (1123)                0.0000000     
    1124    (1124)                0.0000000     
    1125    (1125)                0.0000000     
    1126    (1126)                0.0000000     
    1127    (1127)                0.0000000     
    1128    (1128)                0.0000000     
    1129    (1129)                0.0000000     
    1130    (1130)                0.0000000     
    1131    (1131)                0.0000000     
    1132    (1132)                0.0000000     
    1133    (1133)                0.0000000     
    1134    (1134)                0.0000000     
    1135    (1135)                0.0000000     
    1136    (1136)                0.0000000     
    1137    (1137)                0.0000000     
    1138    (1138)                0.0000000     
    1139    (1139)                0.0000000     
    1140    (1140)                0.0000000     
    1141    (1141)                0.0000000     
    1142    (1142)                0.0000000     
    1143    (1143)                0.0000000     
    1144    (1144)                0.0000000     
    1145    (1145)                0.0000000     
    1146    (1146)                0.0000000     
    1147    (1147)                0.0000000     
    1148    (1148)                0.0000000     
    1149    (1149)                0.0000000     
    1150    (1150)                8.49648638E-03
    1151    (1151)                8.51724120E-03
    1152    (1152)                8.55665280E-03
    1153    (1153)                8.53530218E-03
    1154    (1154)                8.57415722E-03
    1155    (1155)                0.0000000     
    1156    (1156)                0.0000000     
    1157    (1157)                0.0000000     
    1158    (1158)                0.0000000     
    1159    (1159)                0.0000000     
    1160    (1160)                0.0000000     
    1161    (1161)                0.0000000     
    1162    (1162)                0.0000000     
    1163    (1163)                0.0000000     
    1164    (1164)                0.0000000     
    1165    (1165)                8.61279724E-03
    1166    (1166)                8.65101283E-03
    1167    (1167)                0.0000000     
    1168    (1168)                0.0000000     
    1169    (1169)                8.68863425E-03
    1170    (1170)                8.72552692E-03
    1171    (1171)                0.0000000     
    1172    (1172)                0.0000000     
    1173    (1173)                0.0000000     
    1174    (1174)                0.0000000     
    1175    (1175)                0.0000000     
    1176    (1176)                0.0000000     
    1177    (1177)                0.0000000     
    1178    (1178)                0.0000000     
    1179    (1179)                0.0000000     
    1180    (1180)                0.0000000     
    1181    (1181)                0.0000000     
    1182    (1182)                0.0000000     
    1183    (1183)                0.0000000     
    1184    (1184)                0.0000000     
    1185    (1185)                0.0000000     
    1186    (1186)                0.0000000     
    1187    (1187)                0.0000000     
    1188    (1188)                0.0000000     
    1189    (1189)                0.0000000     
    1190    (1190)                8.04547676E-03
    1191    (1191)                0.0000000     
    1192    (1192)                0.0000000     
    1193    (1193)                0.0000000     
    1194    (1194)                0.0000000     
    1195    (1195)                0.0000000     
    1196    (1196)                0.0000000     
    1197    (1197)                0.0000000     
    1198    (1198)                0.0000000     
    1199    (1199)                8.07201050E-03
    1200    (1200)                8.10688475E-03
    1201    (1201)                8.08584400E-03
    1202    (1202)                8.12019276E-03
    1203    (1203)                8.13614715E-03
    1204    (1204)                8.16002689E-03
    1205    (1205)                8.14875248E-03
    1206    (1206)                8.17175957E-03
    1207    (1207)                0.0000000     
    1208    (1208)                8.37354731E-03
    1209    (1209)                8.16875564E-03
    1210    (1210)                8.37813669E-03
    1211    (1211)                3.35008308E-02
    1212    (1212)                3.35432875E-02
    1213    (1213)                3.35245845E-02
    1214    (1214)                0.13347133    
    1215    (1215)                0.13217621    
    1216    (1216)                0.13115778    
    1217    (1217)                0.13129153    
    1218    (1218)                0.13284781    
    1219    (1219)                0.13534962    
    1220    (1220)                0.13827757    
    1221    (1221)                0.14017952    
    1222    (1222)                0.14200264    
    1223    (1223)                0.14372764    
    1224    (1224)                0.14605779    
    1225    (1225)                0.14859965    
    1226    (1226)                0.15179892    
    1227    (1227)                0.15522608    
    1228    (1228)                0.15524078    
    1229    (1229)                0.15283685    
    1230    (1230)                0.14987793    
    1231    (1231)                0.14790701    
    1232    (1232)                0.14685850    
    1233    (1233)                0.14633177    
    1234    (1234)                0.14594083    
    1235    (1235)                0.14539497    
    1236    (1236)                0.14446116    
    1237    (1237)                0.14295966    
    1238    (1238)                0.14077325    
    1239    (1239)                0.13800721    
    1240    (1240)                0.13516969    
    1241    (1241)                0.13306849    
    1242    (1242)                3.29575737E-02
    1243    (1243)                3.29682313E-02
    1244    (1244)                3.32489030E-02
    1245    (1245)                3.32512908E-02
    1246    (1246)                3.30691643E-02
    1247    (1247)                8.28439189E-03
    1248    (1248)                0.0000000     
    1249    (1249)                8.31384053E-03
    1250    (1250)                8.33922130E-03
    1251    (1251)                3.33394296E-02
    1252    (1252)                3.34994359E-02
    1253    (1253)                0.0000000     
    1254    (1254)                8.37242112E-03
    1255    (1255)                8.36781063E-03
    1256    (1256)                8.39903916E-03
    1257    (1257)                8.40670583E-03
    1258    (1258)                8.44257800E-03
    1259    (1259)                8.43236747E-03
    1260    (1260)                8.46729722E-03
    1261    (1261)                3.37143223E-02
    1262    (1262)                3.39670007E-02
    1263    (1263)                3.40391354E-02
    1264    (1264)                3.43402809E-02
    1265    (1265)                3.42422640E-02
    1266    (1266)                3.45277293E-02
    1267    (1267)                3.46408807E-02
    1268    (1268)                3.49341957E-02
    1269    (1269)                3.48140073E-02
    1270    (1270)                3.50944182E-02
    1271    (1271)                0.0000000     
    1272    (1272)                0.0000000     
    1273    (1273)                0.0000000     
    1274    (1274)                0.0000000     
    1275    (1275)                0.0000000     
    1276    (1276)                0.0000000     
    1277    (1277)                0.0000000     
    1278    (1278)                0.0000000     
    1279    (1279)                0.0000000     
    1280    (1280)                0.0000000     
    1281    (1281)                0.0000000     
    1282    (1282)                0.0000000     
    1283    (1283)                0.0000000     
    1284    (1284)                0.0000000     
    1285    (1285)                0.0000000     
    1286    (1286)                0.0000000     
    1287    (1287)                0.0000000     
    1288    (1288)                0.0000000     
    1289    (1289)                0.0000000     
    1290    (1290)                0.0000000     
    1291    (1291)                0.0000000     
    1292    (1292)                0.0000000     
    1293    (1293)                0.0000000     
    1294    (1294)                0.0000000     
    1295    (1295)                0.0000000     
    1296    (1296)                0.0000000     
    1297    (1297)                0.0000000     
    1298    (1298)                0.0000000     
    1299    (1299)                0.0000000     
    1300    (1300)                0.0000000     
    1301    (1301)                0.0000000     
    1302    (1302)                0.0000000     
    1303    (1303)                0.0000000     
    1304    (1304)                0.0000000     
    1305    (1305)                0.0000000     
    1306    (1306)                0.0000000     
    1307    (1307)                7.90308109E-03
    1308    (1308)                0.0000000     
    1309    (1309)                0.0000000     
    1310    (1310)                0.0000000     
    1311    (1311)                7.97929796E-03
    1312    (1312)                8.01465329E-03
    1313    (1313)                8.06097272E-03
    1314    (1314)                8.03201795E-03
    1315    (1315)                8.07787801E-03
    1316    (1316)                0.0000000     
    1317    (1317)                7.99880409E-03
    1318    (1318)                7.96124215E-03
    1319    (1319)                8.02027085E-03
    1320    (1320)                3.23380500E-02
    1321    (1321)                3.25050825E-02
    1322    (1322)                3.27237229E-02
    1323    (1323)                3.26427786E-02
    1324    (1324)                3.28450306E-02
    1325    (1325)                0.13453611    
    1326    (1326)                0.13339066    
    1327    (1327)                0.13146677    
    1328    (1328)                0.12994801    
    1329    (1329)                0.13000009    
    1330    (1330)                0.13194422    
    1331    (1331)                0.13526874    
    1332    (1332)                0.13877142    
    1333    (1333)                0.14192978    
    1334    (1334)                0.14403355    
    1335    (1335)                0.14668440    
    1336    (1336)                0.15019413    
    1337    (1337)                0.15424112    
    1338    (1338)                0.15915769    
    1339    (1339)                0.16357176    
    1340    (1340)                0.16363953    
    1341    (1341)                0.16003572    
    1342    (1342)                0.15544915    
    1343    (1343)                0.15201220    
    1344    (1344)                0.14985864    
    1345    (1345)                0.14855910    
    1346    (1346)                0.14766978    
    1347    (1347)                0.14685469    
    1348    (1348)                0.14584840    
    1349    (1349)                0.14446288    
    1350    (1350)                0.14252633    
    1351    (1351)                0.14011346    
    1352    (1352)                0.13763081    
    1353    (1353)                0.13574201    
    1354    (1354)                0.13500448    
    1355    (1355)                0.13552162    
    1356    (1356)                0.13697454    
    1357    (1357)                0.13891373    
    1358    (1358)                0.14098080    
    1359    (1359)                0.0000000     
    1360    (1360)                0.0000000     
    1361    (1361)                0.0000000     
    1362    (1362)                0.0000000     
    1363    (1363)                0.0000000     
    1364    (1364)                0.0000000     
    1365    (1365)                0.0000000     
    1366    (1366)                0.0000000     
    1367    (1367)                0.0000000     
    1368    (1368)                0.0000000     
    1369    (1369)                0.0000000     
    1370    (1370)                0.0000000     
    1371    (1371)                0.0000000     
    1372    (1372)                0.0000000     
    1373    (1373)                0.0000000     
    1374    (1374)                0.0000000     
    1375    (1375)                0.0000000     
    1376    (1376)                0.0000000     
    1377    (1377)                0.0000000     
    1378    (1378)                0.0000000     
    1379    (1379)                0.0000000     
    1380    (1380)                0.0000000     
    1381    (1381)                0.0000000     
    1382    (1382)                0.0000000     
    1383    (1383)                0.0000000     
    1384    (1384)                0.0000000     
    1385    (1385)                0.0000000     
    1386    (1386)                6.27021696E-03
    1387    (1387)                6.49000473E-03
    1388    (1388)                0.0000000     
    1389    (1389)                0.0000000     
    1390    (1390)                0.0000000     
    1391    (1391)                0.0000000     
    1392    (1392)                0.0000000     
    1393    (1393)                0.0000000     
    1394    (1394)                0.0000000     
    1395    (1395)                0.0000000     
    1396    (1396)                0.0000000     
    1397    (1397)                0.0000000     
    1398    (1398)                6.69685466E-03
    1399    (1399)                6.88963175E-03
    1400    (1400)                0.0000000     
    1401    (1401)                7.18419352E-03
    1402    (1402)                7.06172694E-03
[...]
   14161    (14161)               9.41867726E-04
   14162    (14162)               9.40522313E-04
   14163    (14163)               9.42823794E-04
   14164    (14164)               9.41060041E-04
   14165    (14165)               9.40318653E-04
   14166    (14166)               9.42058662E-04
   14167    (14167)               9.41357240E-04
   14168    (14168)               9.43763020E-04
   14169    (14169)               9.43037974E-04
   14170    (14170)               9.42374141E-04
   14171    (14171)               9.43997618E-04
   14172    (14172)               9.43369153E-04
   14173    (14173)               9.39649557E-04
   14174    (14174)               9.39058365E-04
   14175    (14175)               9.40725004E-04
   14176    (14176)               9.40167068E-04
   14177    (14177)               9.38550182E-04
   14178    (14178)               9.38129469E-04
   14179    (14179)               9.39688087E-04
   14180    (14180)               9.39292109E-04
   14181    (14181)               9.41776532E-04
   14182    (14182)               9.41249824E-04
   14183    (14183)               9.42804099E-04
   14184    (14184)               9.42306735E-04
   14185    (14185)               9.40798265E-04
   14186    (14186)               9.40425552E-04
   14187    (14187)               9.41880945E-04
   14188    (14188)               9.41530119E-04
   14189    (14189)               9.37799911E-04
   14190    (14190)               9.37564339E-04
   14191    (14191)               9.38982513E-04
   14192    (14192)               9.38761885E-04
   14193    (14193)               9.37424635E-04
   14194    (14194)               9.37381718E-04
   14195    (14195)               9.38631998E-04
   14196    (14196)               9.38593762E-04
   14197    (14197)               9.40134770E-04
   14198    (14198)               9.39928318E-04
   14199    (14199)               9.41257095E-04
   14200    (14200)               9.41064074E-04
   14201    (14201)               9.39807846E-04
   14202    (14202)               9.39774252E-04
   14203    (14203)               9.40952620E-04
   14204    (14204)               9.40923608E-04
   14205    (14205)               9.37435541E-04
   14206    (14206)               9.36340051E-04
   14207    (14207)               9.38647225E-04
   14208    (14208)               9.37508601E-04
   14209    (14209)               9.36611759E-04
   14210    (14210)               9.36972559E-04
   14211    (14211)               9.37771308E-04
   14212    (14212)               9.38119015E-04
   14213    (14213)               9.39827666E-04
   14214    (14214)               9.38647856E-04
   14215    (14215)               9.40977229E-04
   14216    (14216)               9.39758045E-04
   14217    (14217)               9.38902345E-04
   14218    (14218)               9.39237949E-04
   14219    (14219)               9.40005003E-04
   14220    (14220)               9.40329396E-04
   14221    (14221)               9.37419710E-04
   14222    (14222)               9.37950010E-04
   14223    (14223)               9.38549322E-04
   14224    (14224)               9.39059421E-04
   14225    (14225)               9.38559972E-04
   14226    (14226)               9.39245916E-04
   14227    (14227)               9.39646183E-04
   14228    (14228)               9.40306299E-04
   14229    (14229)               9.39652578E-04
   14230    (14230)               9.40143733E-04
   14231    (14231)               9.40729396E-04
   14232    (14232)               9.41202788E-04
   14233    (14233)               9.40708639E-04
   14234    (14234)               9.41344288E-04
   14235    (14235)               9.41747074E-04
   14236    (14236)               9.42359556E-04
   14237    (14237)               9.40004094E-04
   14238    (14238)               9.40830760E-04
   14239    (14239)               9.41036341E-04
   14240    (14240)               9.41832853E-04
   14241    (14241)               9.41722231E-04
   14242    (14242)               9.42674947E-04
   14243    (14243)               9.42692406E-04
   14244    (14244)               9.43611637E-04
   14245    (14245)               9.42047560E-04
   14246    (14246)               9.42815261E-04
   14247    (14247)               9.43037359E-04
   14248    (14248)               9.43777556E-04
   14249    (14249)               9.43644202E-04
   14250    (14250)               9.44531205E-04
   14251    (14251)               9.44577158E-04
   14252    (14252)               9.45433185E-04
   14253    (14253)               9.43685470E-04
   14254    (14254)               9.44750506E-04
   14255    (14255)               9.44587270E-04
   14256    (14256)               9.45616127E-04
   14257    (14257)               9.45866882E-04
   14258    (14258)               9.47031547E-04
   14259    (14259)               9.46695138E-04
   14260    (14260)               9.47821305E-04
   14261    (14261)               9.45473163E-04
   14262    (14262)               9.46467027E-04
   14263    (14263)               9.46342691E-04
   14264    (14264)               9.47302754E-04
   14265    (14265)               9.47509821E-04
   14266    (14266)               9.48598628E-04
   14267    (14267)               9.48310506E-04
   14268    (14268)               9.49363113E-04
   14269    (14269)               9.48241506E-04
   14270    (14270)               9.49493843E-04
   14271    (14271)               9.48991689E-04
   14272    (14272)               9.50203401E-04
   14273    (14273)               9.50785629E-04
   14274    (14274)               9.52113954E-04
   14275    (14275)               9.51453555E-04
   14276    (14276)               9.52739268E-04
   14277    (14277)               9.49730569E-04
   14278    (14278)               9.50902803E-04
   14279    (14279)               9.50457770E-04
   14280    (14280)               9.52112501E-04
   14281    (14281)               9.53356816E-04
   14282    (14282)               9.53475835E-04
   14283    (14283)               9.54868246E-04
   14284    (14284)               9.54057607E-04
   14285    (14285)               9.55405589E-04
   14286    (14286)               9.56288058E-04
   14287    (14287)               9.57732055E-04
   14288    (14288)               9.56780160E-04
   14289    (14289)               9.58178199E-04
   14290    (14290)               9.54632864E-04
   14291    (14291)               9.55937734E-04
   14292    (14292)               9.55201303E-04
   14293    (14293)               9.56464366E-04
   14294    (14294)               9.57268442E-04
   14295    (14295)               9.58621942E-04
   14296    (14296)               9.57752566E-04
   14297    (14297)               9.59062943E-04
   14298    (14298)               0.0000000     
   14299    (14299)               9.43807786E-04
   14300    (14300)               9.43338013E-04
   14301    (14301)               9.44787784E-04
   14302    (14302)               9.44343964E-04
   14303    (14303)               9.42936462E-04
   14304    (14304)               9.42606246E-04
   14305    (14305)               9.43965227E-04
   14306    (14306)               9.43654417E-04
   14307    (14307)               9.45324963E-04
   14308    (14308)               9.46281435E-04
   14309    (14309)               9.44967700E-04
   14310    (14310)               9.44675187E-04
   14311    (14311)               9.45944405E-04
   14312    (14312)               9.45669144E-04
   14313    (14313)               9.42349972E-04
   14314    (14314)               9.42169686E-04
   14315    (14315)               9.43413958E-04
   14316    (14316)               9.43245742E-04
   14317    (14317)               9.42066858E-04
   14318    (14318)               9.42042330E-04
   14319    (14319)               9.43151148E-04
   14320    (14320)               9.43131001E-04
   14321    (14321)               9.44449655E-04
   14322    (14322)               9.44292879E-04
   14323    (14323)               9.45457712E-04
   14324    (14324)               9.45311761E-04
   14325    (14325)               9.44206138E-04
   14326    (14326)               9.44190247E-04
   14327    (14327)               9.45232513E-04
   14328    (14328)               9.45220736E-04
   14329    (14329)               9.42096359E-04
   14330    (14330)               9.40839489E-04
   14331    (14331)               9.43185591E-04
   14332    (14332)               9.41892612E-04
   14333    (14333)               9.41079530E-04
   14334    (14334)               9.41393523E-04
   14335    (14335)               9.42126275E-04
   14336    (14336)               9.42430581E-04
   14337    (14337)               9.44245517E-04
   14338    (14338)               9.42917894E-04
   14339    (14339)               9.45276768E-04
   14340    (14340)               9.43915883E-04
   14341    (14341)               9.43145662E-04
   14342    (14342)               9.43440929E-04
   14343    (14343)               9.44138166E-04
   14344    (14344)               9.44424981E-04
   14345    (14345)               9.41779847E-04
   14346    (14346)               9.42236548E-04
   14347    (14347)               9.42804110E-04
   14348    (14348)               9.43245117E-04
   14349    (14349)               9.42761390E-04
   14350    (14350)               9.43351912E-04
   14351    (14351)               9.43751591E-04
   14352    (14352)               9.44321303E-04
   14353    (14353)               9.43802453E-04
   14354    (14354)               9.44228684E-04
   14355    (14355)               9.44775235E-04
   14356    (14356)               9.45187528E-04
   14357    (14357)               9.44717804E-04
   14358    (14358)               9.45267783E-04
   14359    (14359)               9.45660224E-04
   14360    (14360)               9.46191477E-04
   14361    (14361)               9.44005498E-04
   14362    (14362)               9.44719437E-04
   14363    (14363)               9.44951858E-04
   14364    (14364)               9.45640741E-04
   14365    (14365)               9.45490953E-04
   14366    (14366)               9.46317238E-04
   14367    (14367)               9.46385373E-04
   14368    (14368)               9.47183126E-04
   14369    (14369)               9.45876422E-04
   14370    (14370)               9.46541404E-04
   14371    (14371)               9.46779262E-04
   14372    (14372)               9.47421441E-04
   14373    (14373)               9.47260322E-04
   14374    (14374)               9.48030706E-04
   14375    (14375)               9.48115772E-04
   14376    (14376)               9.48859925E-04
   14377    (14377)               0.0000000     
   14378    (14378)               0.0000000     
   14379    (14379)               9.56985192E-04
   14380    (14380)               9.57499944E-04
   14381    (14381)               9.58232228E-04
   14382    (14382)               9.59500864E-04
   14383    (14383)               9.58707144E-04
   14384    (14384)               9.59935399E-04
   14385    (14385)               9.58008389E-04
   14386    (14386)               9.58510308E-04
   14387    (14387)               9.59177048E-04
   14388    (14388)               9.60366267E-04
   14389    (14389)               9.59641716E-04
   14390    (14390)               9.60793189E-04
   14391    (14391)               0.0000000     
   14392    (14392)               0.0000000     
   14393    (14393)               0.0000000     
   14394    (14394)               9.46438788E-04
   14395    (14395)               9.46303094E-04
   14396    (14396)               9.47393566E-04
   14397    (14397)               9.47267587E-04
   14398    (14398)               9.46230975E-04
   14399    (14399)               9.46223166E-04
   14400    (14400)               9.47202244E-04
   14401    (14401)               9.47198249E-04
   14402    (14402)               9.48322740E-04
   14403    (14403)               9.48205958E-04
   14404    (14404)               9.49118925E-04
   14405    (14405)               9.48147047E-04
   14406    (14406)               9.48146710E-04
   14407    (14407)               9.49066126E-04
   14408    (14408)               9.49069277E-04
   14409    (14409)               9.46280020E-04
   14410    (14410)               9.44887146E-04
   14411    (14411)               9.47255957E-04
   14412    (14412)               9.45832303E-04
   14413    (14413)               9.45104324E-04
   14414    (14414)               9.45383215E-04
   14415    (14415)               9.46044703E-04
   14416    (14416)               9.46316144E-04
   14417    (14417)               9.48205289E-04
   14418    (14418)               9.46751981E-04
   14419    (14419)               9.49128732E-04
   14420    (14420)               9.47646826E-04
   14421    (14421)               9.46959891E-04
   14422    (14422)               9.47224317E-04
   14423    (14423)               9.47850507E-04
   14424    (14424)               9.48108300E-04
   14425    (14425)               9.45722852E-04
   14426    (14426)               9.46121986E-04
   14427    (14427)               9.46645773E-04
   14428    (14428)               9.47032461E-04
   14429    (14429)               9.46579134E-04
   14430    (14430)               9.47092602E-04
   14431    (14431)               9.47474861E-04
   14432    (14432)               9.47971436E-04
   14433    (14433)               9.47544481E-04
   14434    (14434)               9.47919388E-04
   14435    (14435)               9.48419517E-04
   14436    (14436)               9.48783240E-04
   14437    (14437)               9.48347801E-04
   14438    (14438)               9.48828306E-04
   14439    (14439)               9.49198364E-04
   14440    (14440)               9.49663582E-04
   14441    (14441)               9.47660540E-04
   14442    (14442)               9.48280961E-04
   14443    (14443)               9.48520474E-04
   14444    (14444)               9.49120128E-04
   14445    (14445)               9.48951771E-04
   14446    (14446)               9.49670798E-04
   14447    (14447)               9.49768451E-04
   14448    (14448)               9.50463402E-04
   14449    (14449)               9.49359336E-04
   14450    (14450)               9.49939170E-04
   14451    (14451)               9.50177442E-04
   14452    (14452)               9.50738348E-04
   14453    (14453)               9.50565986E-04
   14454    (14454)               0.0000000     
   14455    (14455)               9.59005518E-04
   14456    (14456)               9.59493860E-04
   14457    (14457)               9.60100926E-04
   14458    (14458)               9.61215942E-04
   14459    (14459)               9.60554493E-04
   14460    (14460)               9.61634293E-04
   14461    (14461)               9.59975192E-04
   14462    (14462)               9.60449406E-04
   14463    (14463)               9.61002258E-04
   14464    (14464)               9.62048051E-04
   14465    (14465)               9.61444075E-04
   14466    (14466)               9.62457047E-04
   14467    (14467)               9.62348025E-04
   14468    (14468)               9.63494627E-04
   14469    (14469)               9.62730806E-04
   14470    (14470)               9.63841572E-04
   14471    (14471)               9.64653175E-04
   14472    (14472)               9.64964131E-04
   14473    (14473)               9.63110219E-04
   14474    (14474)               9.64186395E-04
   14475    (14475)               9.63486061E-04
   14476    (14476)               9.64528844E-04
   14477    (14477)               9.65274206E-04
   14478    (14478)               9.65583110E-04
   14479    (14479)               0.0000000     
   14480    (14480)               0.0000000     
   14481    (14481)               9.50027000E-04
   14482    (14482)               9.48517491E-04
   14483    (14483)               9.50900806E-04
   14484    (14484)               9.49364636E-04
   14485    (14485)               9.48717173E-04
   14486    (14486)               9.48968685E-04
   14487    (14487)               9.49560519E-04
   14488    (14488)               9.49806067E-04
   14489    (14489)               9.51750868E-04
   14490    (14490)               9.50188914E-04
   14491    (14491)               9.52577872E-04
   14492    (14492)               9.50990976E-04
   14493    (14493)               9.50381183E-04
   14494    (14494)               9.50621060E-04
   14495    (14495)               9.51179795E-04
   14496    (14496)               9.51414268E-04
   14497    (14497)               9.49271413E-04
   14498    (14498)               9.49624524E-04
   14499    (14499)               9.50100735E-04
   14500    (14500)               9.50443756E-04
   14501    (14501)               9.50027011E-04
   14502    (14502)               9.50477666E-04
   14503    (14503)               9.50834211E-04
   14504    (14504)               9.51270983E-04
   14505    (14505)               9.50908055E-04
   14506    (14506)               9.51241471E-04
   14507    (14507)               9.51693944E-04
   14508    (14508)               9.52018206E-04
   14509    (14509)               9.51620453E-04
   14510    (14510)               0.0000000     
   14511    (14511)               0.0000000     
   14512    (14512)               0.0000000     
   14513    (14513)               0.0000000     
   14514    (14514)               0.0000000     
   14515    (14515)               0.0000000     
   14516    (14516)               0.0000000     
   14517    (14517)               0.0000000     
 -----------------------------------------------




 HEAD WILL BE SAVED ON UNIT 1018 AT END OF TIME STEP    1, STRESS PERIOD    1


  VOLUME BUDGET FOR ENTIRE MODEL AT END OF TIME STEP    1, STRESS PERIOD   1
  ---------------------------------------------------------------------------------------------------

     CUMULATIVE VOLUME      L**3       RATES FOR THIS TIME STEP      L**3/T          PACKAGE NAME    
     ------------------                 ------------------------                     ----------------

           IN:                                      IN:
           ---                                      ---
                 WEL =           0.0000                   WEL =           0.0000     WELL_CASEC                       
                 RCH =         631.3991                   RCH =         631.3991     RCH                              
                 EVT =           0.0000                   EVT =           0.0000     EVT                              
                 CHD =           0.0000                   CHD =           0.0000     CHD                              

            TOTAL IN =         631.3991              TOTAL IN =         631.3991

          OUT:                                     OUT:
          ----                                     ----
                 WEL =          65.5742                   WEL =          65.5742     WELL_CASEC                       
                 RCH =           0.0000                   RCH =           0.0000     RCH                              
                 EVT =           7.8926                   EVT =           7.8926     EVT                              
                 CHD =         557.9330                   CHD =         557.9330     CHD                              

           TOTAL OUT =         631.3998             TOTAL OUT =         631.3998

            IN - OUT =      -6.7754E-04              IN - OUT =      -6.7754E-04

 PERCENT DISCREPANCY =          -0.00     PERCENT DISCREPANCY =          -0.00




         TIME SUMMARY AT END OF TIME STEP    1 IN STRESS PERIOD    1
                    SECONDS     MINUTES      HOURS       DAYS        YEARS
                    -----------------------------------------------------------
   TIME STEP LENGTH  1.0000     1.66667E-02 2.77778E-04 1.15741E-05 3.16881E-08
 STRESS PERIOD TIME  1.0000     1.66667E-02 2.77778E-04 1.15741E-05 3.16881E-08
         TOTAL TIME  1.0000     1.66667E-02 2.77778E-04 1.15741E-05 3.16881E-08


end timestep

