                                   MODFLOW 6
                U.S. GEOLOGICAL SURVEY MODULAR HYDROLOGIC MODEL
                            VERSION 6.6.0 12/20/2024

   MODFLOW 6 compiled Dec 31 2024 17:10:16 with Intel(R) Fortran Intel(R) 64
   Compiler Classic for applications running on Intel(R) 64, Version 2021.7.0
                             Build 20220726_000000

This software has been approved for release by the U.S. Geological 
Survey (USGS). Although the software has been subjected to rigorous 
review, the USGS reserves the right to update the software as needed 
pursuant to further analysis and review. No warranty, expressed or 
implied, is made by the USGS or the U.S. Government as to the 
functionality of the software and related material nor shall the 
fact of release constitute any such warranty. Furthermore, the 
software is released on condition that neither the USGS nor the U.S. 
Government shall be held liable for any damages resulting from its 
authorized or unauthorized use. Also refer to the USGS Water 
Resources Software User Rights Notice for complete use, copyright, 
and distribution information.


As a work of the United States Government, this USGS product is 
in the public domain within the United States. You can copy, 
modify, distribute, and perform the work, even for commercial 
purposes, all without asking permission. Additionally, USGS 
waives copyright and related rights in the work worldwide 
through CC0 1.0 Universal Public Domain Dedication 
(https://creativecommons.org/publicdomain/zero/1.0/).

The following GNU Lesser General Public License (LGPL) libraries
are used in this USGS product:

    SPARSKIT version 2.0
      ilut, luson, and qsplit 
      (https://www-users.cse.umn.edu/~saad/software/SPARSKIT/)

    RCM - Reverse Cuthill McKee Ordering
      (https://people.math.sc.edu/Burkardt/f_src/rcm/rcm.html)

    BLAS - Basic Linear Algebra Subprograms Level 1
      (https://people.math.sc.edu/Burkardt/f_src/blas1_d/blas1_d.html)

    SPARSEKIT - Sparse Matrix Utility Package
      amux, dperm, dvperm, rperm, and cperm
      (https://people.sc.fsu.edu/~jburkardt/f77_src/sparsekit/sparsekit.html)

The following BSD-3 License libraries are used in this USGS product:

    Modern Fortran DAG Library
      Copyright (c) 2018, Jacob Williams
      All rights reserved.
      (https://github.com/jacobwilliams/daglib)

MODFLOW 6 compiler options: /O2 /heap-arrays:0 /fpe:0 /traceback /nologo /fpp
/c /module:win64\mod_mf6\ /object:win64\obj_mf6\

System command used to initiate simulation:
C:\Users\sebas\AppData\Local\flopy\bin\mf6.exe

MODFLOW was compiled using uniform precision.

Real Variables
  KIND: 8
  TINY (smallest non-zero value):    2.225074-308
  HUGE (largest value):    1.797693+308
  PRECISION: 15
  SIZE IN BITS: 64

Integer Variables
  KIND: 4
  HUGE (largest value): 2147483647
  SIZE IN BITS: 32

Long Integer Variables
  KIND: 8
  HUGE (largest value): 9223372036854775807
  SIZE IN BITS: 64

Logical Variables
  KIND: 4
  SIZE IN BITS: 32
 

 OPENED mfsim.nam
 FILE TYPE:NAM6               UNIT 1001   STATUS:OLD                 
 FORMAT:FORMATTED              ACCESS:SEQUENTIAL          
 ACTION:READ                

 # File generated by Flopy version 3.9.1 on 02/09/2026 at 22:28:46.

 OPENED voronoi_caseB.tdis
 FILE TYPE:TDIS6              UNIT 1002   STATUS:OLD                 
 FORMAT:FORMATTED              ACCESS:SEQUENTIAL          
 ACTION:READ                

 # File generated by Flopy version 3.9.1 on 02/09/2026 at 22:28:46.

 OPENED voronoi_caseB.nam
 FILE TYPE:GWF6               UNIT 1003   STATUS:OLD                 
 FORMAT:FORMATTED              ACCESS:SEQUENTIAL          
 ACTION:READ                

 # File generated by Flopy version 3.9.1 on 02/09/2026 at 22:28:46.

 OPENED voronoi_caseB.disv
 FILE TYPE:DISV6              UNIT 1004   STATUS:OLD                 
 FORMAT:FORMATTED              ACCESS:SEQUENTIAL          
 ACTION:READ                

 # File generated by Flopy version 3.9.1 on 02/09/2026 at 22:28:46.

 OPENED voronoi_caseB.npf
 FILE TYPE:NPF6               UNIT 1005   STATUS:OLD                 
 FORMAT:FORMATTED              ACCESS:SEQUENTIAL          
 ACTION:READ                

 # File generated by Flopy version 3.9.1 on 02/09/2026 at 22:28:49.

 OPENED voronoi_caseB.ic
 FILE TYPE:IC6                UNIT 1006   STATUS:OLD                 
 FORMAT:FORMATTED              ACCESS:SEQUENTIAL          
 ACTION:READ                

 # File generated by Flopy version 3.9.1 on 02/09/2026 at 22:28:49.

 OPENED voronoi_caseB.oc
 FILE TYPE:OC6       UNIT 1007   STATUS:OLD                 
 FORMAT:FORMATTED              ACCESS:SEQUENTIAL          
 ACTION:READ                


 OPENED voronoi_caseB.wel
 FILE TYPE:WEL6               UNIT 1008   STATUS:OLD                 
 FORMAT:FORMATTED              ACCESS:SEQUENTIAL          
 ACTION:READ                

 # File generated by Flopy version 3.9.1 on 02/09/2026 at 22:28:50.

 OPENED voronoi_caseB.rch
 FILE TYPE:RCH6               UNIT 1010   STATUS:OLD                 
 FORMAT:FORMATTED              ACCESS:SEQUENTIAL          
 ACTION:READ                

 # File generated by Flopy version 3.9.1 on 02/09/2026 at 22:28:50.

 OPENED voronoi_caseB.evt
 FILE TYPE:EVT6               UNIT 1012   STATUS:OLD                 
 FORMAT:FORMATTED              ACCESS:SEQUENTIAL          
 ACTION:READ                

 # File generated by Flopy version 3.9.1 on 02/09/2026 at 22:28:50.

 OPENED voronoi_caseB.chd
 FILE TYPE:CHD6               UNIT 1013   STATUS:OLD                 
 FORMAT:FORMATTED              ACCESS:SEQUENTIAL          
 ACTION:READ                

 # File generated by Flopy version 3.9.1 on 02/09/2026 at 22:28:49.

 READING SIMULATION OPTIONS
    MAXIMUM NUMBER OF ERRORS THAT WILL BE STORED IS 1000
 END OF SIMULATION OPTIONS

 READING SIMULATION TIMING

 TDIS -- TEMPORAL DISCRETIZATION PACKAGE,
 VERSION 1 : 11/13/2014 - INPUT READ FROM MEMPATH: __INPUT__/SIM/TDIS                                
 PROCESSING TDIS OPTIONS
    SIMULATION TIME UNIT IS SECONDS
 END OF TDIS OPTIONS
 PROCESSING TDIS DIMENSIONS
    1 STRESS PERIOD(S) IN SIMULATION
 END OF TDIS DIMENSIONS
 PROCESSING TDIS PERIODDATA


 STRESS PERIOD     LENGTH       TIME STEPS     MULTIPLIER FOR DELT
 ----------------------------------------------------------------------------
        1         1.000000          1                    1.000
 END OF TDIS PERIODDATA
 END OF SIMULATION TIMING

 READING SIMULATION MODELS
    GWF6 model 1 will be created
 END OF SIMULATION MODELS

 READING SIMULATION EXCHANGES
 END OF SIMULATION EXCHANGES

 READING SOLUTIONGROUP

 Creating solution: SLN_1           

 OPENED voronoi_caseB.ims
 FILE TYPE:IMS   UNIT 1015   STATUS:OLD                 
 FORMAT:FORMATTED              ACCESS:SEQUENTIAL          
 ACTION:READ                

 END OF SOLUTIONGROUP

PROCESSING MODEL CONNECTIONS

 IMS -- ITERATIVE MODEL SOLUTION PACKAGE, VERSION 6, 4/28/2017
         INPUT READ FROM UNIT 1015
 # File generated by Flopy version 3.9.1 on 02/09/2026 at 22:28:46.

 PROCESSING IMS OPTIONS
 COMPLEX OPTION:
 DEFAULT SOLVER INPUT VALUES REFLECT STRONGLY NONLINEAR MODEL
 END OF IMS OPTIONS

 PROCESSING IMS NONLINEAR
 END OF IMS NONLINEAR DATA
 **UNDER-RELAXATION WILL BE USED***
 

 PROCESSING LINEAR DATA
 END OF LINEAR DATA
 ***IMS LINEAR SOLVER WILL BE USED***

 IMSLINEAR -- UNSTRUCTURED LINEAR SOLUTION PACKAGE, VERSION 8, 04/28/2017
 An asymmetric matrix will be solved

 OUTER ITERATION CONVERGENCE CRITERION    (DVCLOSE) =    0.100000E-02
 MAXIMUM NUMBER OF OUTER ITERATIONS        (MXITER) = 300
 SOLVER PRINTOUT INDEX                     (IPRIMS) = 1
 NONLINEAR ITERATION METHOD            (NONLINMETH) = 3
 LINEAR SOLUTION METHOD                   (LINMETH) = 1
 UNDER-RELAXATION WEIGHT REDUCTION FACTOR   (THETA) =    0.800000E+00
 UNDER-RELAXATION WEIGHT INCREASE INCREMENT (KAPPA) =    0.100000E-03
 UNDER-RELAXATION PREVIOUS HISTORY FACTOR   (GAMMA) =    0.000000E+00
 UNDER-RELAXATION MOMENTUM TERM         (AMOMENTUM) =    0.000000E+00
 MAXIMUM NUMBER OF BACKTRACKS            (NUMTRACK) = 20
 BACKTRACKING TOLERANCE FACTOR               (BTOL) =    0.105000E+01
 BACKTRACKING REDUCTION FACTOR             (BREDUC) =    0.100000E+00
 BACKTRACKING RESIDUAL LIMIT              (RES_LIM) =    0.200000E-02

       SOLUTION BY THE BICONJUGATE-GRADIENT STABILIZED METHOD
 ------------------------------------------------------------------
 MAXIMUM OF 300 CALLS OF SOLUTION ROUTINE
 MAXIMUM OF 1200 INTERNAL ITERATIONS PER CALL TO SOLUTION ROUTINE
 LINEAR ACCELERATION METHOD            = BCGS      
 MATRIX PRECONDITIONING TYPE           = MOD. INCOMPLETE LUT 
 MATRIX SCALING APPROACH               = NO SCALING          
 MATRIX REORDERING APPROACH            = ORIGINAL ORDERING        
 NUMBER OF ORTHOGONALIZATIONS          = 2
 HEAD CHANGE CRITERION FOR CLOSURE     =    0.10000E-05
 RESIDUAL CHANGE CRITERION FOR CLOSURE =    0.10000E+00
 RESIDUAL CONVERGENCE OPTION           = 0
 RESIDUAL CONVERGENCE NORM             = INFINITY NORM   
 RELAXATION FACTOR                     =    0.92000E+00
 NUMBER OF LEVELS                      =              5
 DROP TOLERANCE                        =    0.10000E-03


 
    Solving:  Stress period:     1    Time step:     1
 
1
 STRESS PERIOD NO. 1, LENGTH =   1.000000    
 ------------------------------------------
 NUMBER OF TIME STEPS = 1
 MULTIPLIER FOR DELT =     1.000
 INITIAL TIME STEP SIZE =   1.000000    



 PSEUDO-TRANSIENT CONTINUATION WILL BE APPLIED TO MODEL 1 ("VORONOI_CASEB") DURING THIS TIME STEP

 SLN_1 OUTER ITERATION SUMMARY
 ----------------------------------------------------------------------------------------------------------------------------------------------------------------
                                OUTER      INNER  BACKTRACK  BACKTRACK        INCOMING        OUTGOING                    STEP   MAXIMUM CHANGE MODEL-(CELLID) OR
 OUTER ITERATION STEP       ITERATION  ITERATION       FLAG ITERATIONS        RESIDUAL        RESIDUAL  MAXIMUM CHANGE SUCCESS             MODEL-PACKAGE-(NUMBER)
 ----------------------------------------------------------------------------------------------------------------------------------------------------------------
 Backtracking                       1                     0          0       279217.45       279217.45                       *                                   
 Model                              1          8                                                            -5.7934173                            1_GWF-(1,39687)
 Backtracking                       2                     0          0       974.44841       974.44841                       *                                   
 Model                              2         51                                                            -4.1879883                            1_GWF-(1,39687)
 Backtracking                       3                     1          2       43572.813       979.47052                                                           
 Model                              3         56                                                            -4.1460758                            1_GWF-(1,39687)
 Backtracking                       4                     1          3       43231.546       990.43969                                                           
 Model                              4         50                                                            -4.1423041                            1_GWF-(1,39687)
 Backtracking                       5                     1          3       43102.395       1003.0847                                                           
 Model                              5         51                                                            -4.1385695                            1_GWF-(1,39687)
 Backtracking                       6                     1          3       42962.331       1017.3184                                                           
 Model                              6         50                                                            -4.1348503                            1_GWF-(1,39687)
 Backtracking                       7                     1          3       42812.340       1033.0496                                                           
 Model                              7         51                                                            -4.1311402                            1_GWF-(1,39687)
 Backtracking                       8                     1          3       42653.454       1050.1845                                                           
 Model                              8         51                                                            -4.1274345                            1_GWF-(1,39687)
 Backtracking                       9                     1          3       42486.630       1068.6287                                                           
 Model                              9         50                                                            -4.1237073                            1_GWF-(1,39687)
 Backtracking                      10                     1          3       42313.058       1088.2885                                                           
 Model                             10         65                                                            -4.1200465                            1_GWF-(1,39687)
 Backtracking                      11                     1          3       42133.214       1109.0721                                                           
 Model                             11         52                                                            -4.1162985                            1_GWF-(1,39687)
 Backtracking                      12                     1          3       41948.677       1130.8906                                                           
 Model                             12         56                                                            -4.1125423                            1_GWF-(1,39687)
 Backtracking                      13                     1          3       41759.907       1153.6587                                                           
 Model                             13         62                                                            -4.1087689                            1_GWF-(1,39687)
 Backtracking                      14                     1          3       41567.764       1177.2953                                                           
 Model                             14         49                                                            -4.1049423                            1_GWF-(1,39687)
 Backtracking                      15                     1          3       41373.076       1201.7235                                                           
 Model                             15         50                                                            -4.1010644                            1_GWF-(1,39687)
 Backtracking                      16                     1          3       41176.507       1226.8715                                                           
 Model                             16         44                                                            -4.0970852                            1_GWF-(1,39687)
 Backtracking                      17                     1          3       40978.971       1252.6720                                                           
 Model                             17         49                                                            -4.0932327                            1_GWF-(1,39687)
 Backtracking                      18                     1          3       40779.637       1279.0619                                                           
 Model                             18         50                                                            -4.0892416                            1_GWF-(1,39687)
 Backtracking                      19                     1          3       40580.479       1305.9832                                                           
 Model                             19         50                                                            -4.0852155                            1_GWF-(1,39687)
 Backtracking                      20                     1          3       40381.353       1333.3822                                                           
 Model                             20         49                                                            -4.0811505                            1_GWF-(1,39687)
 Backtracking                      21                     1          3       40182.609       1361.2093                                                           
 Model                             21         50                                                            -4.0770443                            1_GWF-(1,39687)
 Backtracking                      22                     1          3       39984.594       1389.4189                                                           
 Model                             22         50                                                            -4.0728994                            1_GWF-(1,39687)
 Backtracking                      23                     1          3       39787.558       1417.9691                                                           
 Model                             23         43                                                            -4.0686906                            1_GWF-(1,39687)
 Backtracking                      24                     1          3       39591.835       1446.8214                                                           
 Model                             24         49                                                            -4.0645007                            1_GWF-(1,39687)
 Backtracking                      25                     1          3       39397.283       1475.9405                                                           
 Model                             25         49                                                            -4.0602515                            1_GWF-(1,39687)
 Backtracking                      26                     1          3       39204.433       1505.2941                                                           
 Model                             26         44                                                            -4.0559624                            1_GWF-(1,39687)
 Backtracking                      27                     1          3       39013.319       1534.8529                                                           
 Model                             27         46                                                            -4.0516530                            1_GWF-(1,39687)
 Backtracking                      28                     1          3       38823.971       1564.5896                                                           
 Model                             28         44                                                            -4.0473035                            1_GWF-(1,39687)
 Backtracking                      29                     1          3       38636.594       1594.4797                                                           
 Model                             29         44                                                            -4.0429401                            1_GWF-(1,39687)
 Backtracking                      30                     1          3       38451.142       1624.5007                                                           
 Model                             30         47                                                            -4.0385418                            1_GWF-(1,39687)
 Backtracking                      31                     1          3       38267.739       1654.6318                                                           
 Model                             31         39                                                            -4.0341098                            1_GWF-(1,39687)
 Backtracking                      32                     1          3       38086.499       1684.8543                                                           
 Model                             32         37                                                            -4.0296670                            1_GWF-(1,39687)
 Backtracking                      33                     1          3       37907.355       1715.1510                                                           
 Model                             33         45                                                            -4.0252442                            1_GWF-(1,39687)
 Backtracking                      34                     1          3       37730.189       1745.5061                                                           
 Model                             34         46                                                            -4.0207763                            1_GWF-(1,39687)
 Backtracking                      35                     1          3       37555.279       1775.9052                                                           
 Model                             35         47                                                            -4.0162936                            1_GWF-(1,39687)
 Backtracking                      36                     1          3       37382.527       1806.3352                                                           
 Model                             36         37                                                            -4.0117698                            1_GWF-(1,39687)
 Backtracking                      37                     1          3       37212.007       1836.7843                                                           
 Model                             37         46                                                            -4.0072873                            1_GWF-(1,39687)
 Backtracking                      38                     1          3       37043.420       1867.2412                                                           
 Model                             38         46                                                            -4.0027736                            1_GWF-(1,39687)
 Backtracking                      39                     1          3       36877.042       1897.6961                                                           
 Model                             39         51                                                            -3.9982328                            1_GWF-(1,39687)
 Backtracking                      40                     1          3       36712.865       1928.1398                                                           
 Model                             40         43                                                            -3.9936690                            1_GWF-(1,39687)
 Backtracking                      41                     1          3       36550.851       1958.5640                                                           
 Model                             41         41                                                            -3.9891324                            1_GWF-(1,39687)
 Backtracking                      42                     1          3       36390.396       1988.9606                                                           
 Model                             42         34                                                            -3.9845660                            1_GWF-(1,39687)
 Backtracking                      43                     1          3       36232.428       2019.3231                                                           
 Model                             43         34                                                            -3.9800115                            1_GWF-(1,39687)
 Backtracking                      44                     1          3       36076.428       2049.6449                                                           
 Model                             44         40                                                            -3.9754573                            1_GWF-(1,39687)
 Backtracking                      45                     1          3       35922.378       2079.9203                                                           
 Model                             45         49                                                            -3.9709138                            1_GWF-(1,39687)
 Backtracking                      46                     1          3       35770.227       2110.1437                                                           
 Model                             46         43                                                            -3.9663188                            1_GWF-(1,39687)
 Backtracking                      47                     1          3       35620.227       2140.3105                                                           
 Model                             47         46                                                            -3.9617445                            1_GWF-(1,39687)
 Backtracking                      48                     1          3       35472.011       2170.4162                                                           
 Model                             48         39                                                            -3.9571806                            1_GWF-(1,39687)
 Backtracking                      49                     1          3       35325.598       2200.4565                                                           
 Model                             49         40                                                            -3.9525932                            1_GWF-(1,39687)
 Backtracking                      50                     1          3       35181.130       2230.4280                                                           
 Model                             50         43                                                            -3.9480333                            1_GWF-(1,39687)
 Backtracking                      51                     1          3       35038.323       2260.3271                                                           
 Model                             51         45                                                            -3.9434605                            1_GWF-(1,39687)
 Backtracking                      52                     1          3       34897.347       2290.1507                                                           
 Model                             52         34                                                            -3.9388705                            1_GWF-(1,39687)
 Backtracking                      53                     1          3       34758.152       2319.8961                                                           
 Model                             53         46                                                            -3.9343182                            1_GWF-(1,39687)
 Backtracking                      54                     1          3       34620.559       2349.5606                                                           
 Model                             54         39                                                            -3.9297513                            1_GWF-(1,39687)
 Backtracking                      55                     1          3       34484.672       2379.1419                                                           
 Model                             55         39                                                            -3.9251778                            1_GWF-(1,39687)
 Backtracking                      56                     1          3       34350.433       2408.6380                                                           
 Model                             56         39                                                            -3.9206163                            1_GWF-(1,39687)
 Backtracking                      57                     1          3       34217.814       2438.0468                                                           
 Model                             57         45                                                            -3.9160576                            1_GWF-(1,39687)
 Backtracking                      58                     1          3       34086.749       2467.3667                                                           
 Model                             58         39                                                            -3.9114874                            1_GWF-(1,39687)
 Backtracking                      59                     1          3       33957.268       2496.5961                                                           
 Model                             59         35                                                            -3.9069274                            1_GWF-(1,39687)
 Backtracking                      60                     1          3       33829.393       2525.7337                                                           
 Model                             60         41                                                            -3.9023866                            1_GWF-(1,39687)
 Backtracking                      61                     1          3       33702.831       2554.7780                                                           
 Model                             61         41                                                            -3.8978373                            1_GWF-(1,39687)
 Backtracking                      62                     1          3       33577.770       2583.7280                                                           
 Model                             62         47                                                            -3.8933117                            1_GWF-(1,39687)
 Backtracking                      63                     1          3       33454.083       2612.5825                                                           
 Model                             63         39                                                            -3.8887641                            1_GWF-(1,39687)
 Backtracking                      64                     1          3       33331.863       2641.3407                                                           
 Model                             64         39                                                            -3.8842354                            1_GWF-(1,39687)
 Backtracking                      65                     1          3       33210.976       2670.0018                                                           
 Model                             65         39                                                            -3.8797120                            1_GWF-(1,39687)
 Backtracking                      66                     1          3       33091.446       2698.5650                                                           
 Model                             66         39                                                            -3.8751940                            1_GWF-(1,39687)
 Backtracking                      67                     1          3       32973.219       2727.0298                                                           
 Model                             67         39                                                            -3.8706811                            1_GWF-(1,39687)
 Backtracking                      68                     1          3       32856.285       2755.3955                                                           
 Model                             68         39                                                            -3.8661738                            1_GWF-(1,39687)
 Backtracking                      69                     1          3       32740.616       2783.6617                                                           
 Model                             69         39                                                            -3.8616733                            1_GWF-(1,39687)
 Backtracking                      70                     1          3       32626.183       2811.8280                                                           
 Model                             70         38                                                            -3.8571791                            1_GWF-(1,39687)
 Backtracking                      71                     1          3       32512.979       2839.8941                                                           
 Model                             71         38                                                            -3.8526915                            1_GWF-(1,39687)
 Backtracking                      72                     1          3       32400.958       2867.8596                                                           
 Model                             72         38                                                            -3.8482102                            1_GWF-(1,39687)
 Backtracking                      73                     1          3       32290.127       2895.7244                                                           
 Model                             73         36                                                            -3.8437351                            1_GWF-(1,39687)
 Backtracking                      74                     1          3       32180.426       2923.4883                                                           
 Model                             74         35                                                            -3.8392665                            1_GWF-(1,39687)
 Backtracking                      75                     1          3       32071.850       2951.1511                                                           
 Model                             75         37                                                            -3.8348063                            1_GWF-(1,39687)
 Backtracking                      76                     1          3       31964.408       2978.7128                                                           
 Model                             76         36                                                            -3.8303514                            1_GWF-(1,39687)
 Backtracking                      77                     1          3       31858.023       3006.1733                                                           
 Model                             77         36                                                            -3.8259033                            1_GWF-(1,39687)
 Backtracking                      78                     1          3       31752.696       3033.5327                                                           
 Model                             78         36                                                            -3.8214626                            1_GWF-(1,39687)
 Backtracking                      79                     1          3       31648.418       3060.7909                                                           
 Model                             79         35                                                            -3.8170285                            1_GWF-(1,39687)
 Backtracking                      80                     1          3       31545.164       3087.9480                                                           
 Model                             80         35                                                            -3.8126022                            1_GWF-(1,39687)
 Backtracking                      81                     1          3       31442.917       3115.0041                                                           
 Model                             81         35                                                            -3.8081830                            1_GWF-(1,39687)
 Backtracking                      82                     1          3       31341.657       3141.9594                                                           
 Model                             82         28                                                            -3.8037443                            1_GWF-(1,39687)
 Backtracking                      83                     1          3       31241.364       3168.8139                                                           
 Model                             83         35                                                            -3.7993673                            1_GWF-(1,39687)
 Backtracking                      84                     1          3       31142.027       3195.5678                                                           
 Model                             84         28                                                            -3.7949491                            1_GWF-(1,39687)
 Backtracking                      85                     1          3       31043.608       3222.2213                                                           
 Model                             85         28                                                            -3.7905614                            1_GWF-(1,39687)
 Backtracking                      86                     1          3       30946.124       3248.7747                                                           
 Model                             86         35                                                            -3.7861997                            1_GWF-(1,39687)
 Backtracking                      87                     1          3       30849.556       3275.2281                                                           
 Model                             87         32                                                            -3.7818138                            1_GWF-(1,39687)
 Backtracking                      88                     1          3       30753.883       3301.5818                                                           
 Model                             88         36                                                            -3.7774583                            1_GWF-(1,39687)
 Backtracking                      89                     1          3       30659.030       3327.8361                                                           
 Model                             89         34                                                            -3.7730992                            1_GWF-(1,39687)
 Backtracking                      90                     1          3       30565.055       3353.9912                                                           
 Model                             90         34                                                            -3.7687478                            1_GWF-(1,39687)
 Backtracking                      91                     1          3       30471.921       3380.0474                                                           
 Model                             91         34                                                            -3.7644041                            1_GWF-(1,39687)
 Backtracking                      92                     1          3       30379.611       3406.0049                                                           
 Model                             92         34                                                            -3.7600659                            1_GWF-(1,39687)
 Backtracking                      93                     1          3       30288.115       3431.8642                                                           
 Model                             93         34                                                            -3.7557375                            1_GWF-(1,39687)
 Backtracking                      94                     1          3       30197.449       3457.6256                                                           
 Model                             94         34                                                            -3.7514166                            1_GWF-(1,39687)
 Backtracking                      95                     1          3       30107.535       3483.2893                                                           
 Model                             95         34                                                            -3.7471029                            1_GWF-(1,39687)
 Backtracking                      96                     1          3       30018.308       3508.8557                                                           
 Model                             96         34                                                            -3.7427971                            1_GWF-(1,39687)
 Backtracking                      97                     1          3       29929.924       3534.3250                                                           
 Model                             97         34                                                            -3.7384986                            1_GWF-(1,39687)
 Backtracking                      98                     1          3       29842.287       3559.6978                                                           
 Model                             98         34                                                            -3.7342075                            1_GWF-(1,39687)
 Backtracking                      99                     1          3       29755.384       3584.9743                                                           
 Model                             99         31                                                            -3.7299225                            1_GWF-(1,39687)
 Backtracking                     100                     1          3       29669.202       3610.1549                                                           
 Model                            100         31                                                            -3.7256474                            1_GWF-(1,39687)
 Backtracking                     101                     1          3       29583.729       3635.2400                                                           
 Model                            101         31                                                            -3.7213807                            1_GWF-(1,39687)
 Backtracking                     102                     1          3       29498.951       3660.2300                                                           
 Model                            102         28                                                            -3.7171163                            1_GWF-(1,39687)
 Backtracking                     103                     1          3       29414.826       3685.1251                                                           
 Model                            103         28                                                            -3.7128628                            1_GWF-(1,39687)
 Backtracking                     104                     1          3       29331.424       3709.9259                                                           
 Model                            104         32                                                            -3.7086223                            1_GWF-(1,39687)
 Backtracking                     105                     1          3       29248.692       3734.6327                                                           
 Model                            105         32                                                            -3.7043846                            1_GWF-(1,39687)
 Backtracking                     106                     1          3       29166.542       3759.2458                                                           
 Model                            106         31                                                            -3.7001552                            1_GWF-(1,39687)
 Backtracking                     107                     1          3       29085.099       3783.7656                                                           
 Model                            107         32                                                            -3.6959329                            1_GWF-(1,39687)
 Backtracking                     108                     1          3       29004.374       3808.1927                                                           
 Model                            108         33                                                            -3.6917200                            1_GWF-(1,39687)
 Backtracking                     109                     1          3       28924.186       3832.5274                                                           
 Model                            109         33                                                            -3.6875143                            1_GWF-(1,39687)
 Backtracking                     110                     1          3       28844.615       3856.7700                                                           
 Model                            110         34                                                            -3.6833143                            1_GWF-(1,39687)
 Backtracking                     111                     1          3       28765.657       3880.9210                                                           
 Model                            111         36                                                            -3.6791323                            1_GWF-(1,39687)
 Backtracking                     112                     1          3       28687.288       3904.9807                                                           
 Model                            112         36                                                            -3.6749491                            1_GWF-(1,39687)
 Backtracking                     113                     1          3       28609.510       3928.9495                                                           
 Model                            113         36                                                            -3.6707734                            1_GWF-(1,39687)
 Backtracking                     114                     1          3       28532.313       3952.8279                                                           
 Model                            114         36                                                            -3.6666050                            1_GWF-(1,39687)
 Backtracking                     115                     1          3       28455.688       3976.6162                                                           
 Model                            115         36                                                            -3.6624438                            1_GWF-(1,39687)
 Backtracking                     116                     1          3       28379.615       4000.3148                                                           
 Model                            116         36                                                            -3.6582897                            1_GWF-(1,39687)
 Backtracking                     117                     1          3       28304.109       4023.9242                                                           
 Model                            117         36                                                            -3.6541432                            1_GWF-(1,39687)
 Backtracking                     118                     1          3       28229.148       4047.4447                                                           
 Model                            118         30                                                            -3.6499932                            1_GWF-(1,39687)
 Backtracking                     119                     1          3       28154.729       4070.8767                                                           
 Model                            119         30                                                            -3.6458647                            1_GWF-(1,39687)
 Backtracking                     120                     1          3       28080.838       4094.2207                                                           
 Model                            120         30                                                            -3.6417456                            1_GWF-(1,39687)
 Backtracking                     121                     1          3       28007.475       4117.4769                                                           
 Model                            121         29                                                            -3.6376277                            1_GWF-(1,39687)
 Backtracking                     122                     1          3       27934.627       4140.6459                                                           
 Model                            122         29                                                            -3.6335179                            1_GWF-(1,39687)
 Backtracking                     123                     1          3       27862.276       4163.7280                                                           
 Model                            123         33                                                            -3.6294232                            1_GWF-(1,39687)
 Backtracking                     124                     1          3       27790.438       4186.7236                                                           
 Model                            124         33                                                            -3.6253294                            1_GWF-(1,39687)
 Backtracking                     125                     1          3       27719.089       4209.6331                                                           
 Model                            125         33                                                            -3.6212421                            1_GWF-(1,39687)
 Backtracking                     126                     1          3       27648.231       4232.4568                                                           
 Model                            126         33                                                            -3.6171624                            1_GWF-(1,39687)
 Backtracking                     127                     1          3       27577.853       4255.1952                                                           
 Model                            127         28                                                            -3.6130790                            1_GWF-(1,39687)
 Backtracking                     128                     1          3       27507.931       4277.8487                                                           
 Model                            128         28                                                            -3.6090111                            1_GWF-(1,39687)
 Backtracking                     129                     1          3       27438.493       4300.4176                                                           
 Model                            129         33                                                            -3.6049688                            1_GWF-(1,39687)
 Backtracking                     130                     1          3       27369.546       4322.9023                                                           
 Model                            130         33                                                            -3.6009181                            1_GWF-(1,39687)
 Backtracking                     131                     1          3       27301.029       4345.3033                                                           
 Model                            131         33                                                            -3.5968749                            1_GWF-(1,39687)
 Backtracking                     132                     1          3       27232.962       4367.6208                                                           
 Model                            132         33                                                            -3.5928378                            1_GWF-(1,39687)
 Backtracking                     133                     1          3       27165.341       4389.8553                                                           
 Model                            133         33                                                            -3.5888092                            1_GWF-(1,39687)
 Backtracking                     134                     1          3       27098.155       4412.0072                                                           
 Model                            134         33                                                            -3.5847867                            1_GWF-(1,39687)
 Backtracking                     135                     1          3       27031.405       4434.0767                                                           
 Model                            135         33                                                            -3.5807717                            1_GWF-(1,39687)
 Backtracking                     136                     1          2       26965.091       4654.2342                                                           
 Model                            136         34                                                            -3.5407431                            1_GWF-(1,39687)
 Backtracking                     137                     1          2       26444.812       4867.5044                                                           
 Model                            137         30                                                            -3.5013819                            1_GWF-(1,39687)
 Backtracking                     138                     1          2       25956.614       5074.1903                                                           
 Model                            138         26                                                            -3.4626760                            1_GWF-(1,39687)
 Backtracking                     139                     1          2       25497.045       5274.5766                                                           
 Model                            139         27                                                            -3.4245873                            1_GWF-(1,39687)
 Backtracking                     140                     1          2       25063.064       5468.9294                                                           
 Model                            140         27                                                            -3.3871106                            1_GWF-(1,39687)
 Backtracking                     141                     1          2       24652.090       5657.4968                                                           
 Model                            141         27                                                            -3.3502280                            1_GWF-(1,39687)
 Backtracking                     142                     1          2       24261.894       5840.5103                                                           
 Model                            142         24                                                            -3.3139277                            1_GWF-(1,39687)
 Backtracking                     143                     1          2       23890.571       6018.1862                                                           
 Model                            143         25                                                            -3.2781708                            1_GWF-(1,39687)
 Backtracking                     144                     1          2       23536.434       6190.7270                                                           
 Model                            144         25                                                            -3.2429630                            1_GWF-(1,39687)
 Backtracking                     145                     1          2       23198.056       6358.3225                                                           
 Model                            145         25                                                            -3.2082650                            1_GWF-(1,39687)
 Backtracking                     146                     1          2       22874.151       6521.1505                                                           
 Model                            146         25                                                            -3.1740922                            1_GWF-(1,39687)
 Backtracking                     147                     1          2       22563.575       6679.3783                                                           
 Model                            147         26                                                            -3.1404157                            1_GWF-(1,39687)
 Backtracking                     148                     1          2       22265.323       6833.1637                                                           
 Model                            148         22                                                            -3.1072248                            1_GWF-(1,39687)
 Backtracking                     149                     1          2       21978.552       6982.6557                                                           
 Model                            149         22                                                            -3.0745052                            1_GWF-(1,39687)
 Backtracking                     150                     1          2       21702.412       7127.9948                                                           
 Model                            150         26                                                            -3.0422450                            1_GWF-(1,39687)
 Backtracking                     151                     1          2       21436.157       7269.3136                                                           
 Model                            151         23                                                            -3.0104345                            1_GWF-(1,39687)
 Backtracking                     152                     1          2       21179.164       7406.7381                                                           
 Model                            152         23                                                            -2.9790598                            1_GWF-(1,39687)
 Backtracking                     153                     1          2       20930.850       7540.3881                                                           
 Model                            153         23                                                            -2.9481129                            1_GWF-(1,39687)
 Backtracking                     154                     1          2       20690.657       7670.3770                                                           
 Model                            154         23                                                            -2.9175837                            1_GWF-(1,39687)
 Backtracking                     155                     1          2       20458.136       7796.8134                                                           
 Model                            155         22                                                            -2.8874626                            1_GWF-(1,39687)
 Backtracking                     156                     1          2       20232.813       7919.8005                                                           
 Model                            156         22                                                            -2.8577408                            1_GWF-(1,39687)
 Backtracking                     157                     1          2       20014.283       8039.4369                                                           
 Model                            157         22                                                            -2.8284096                            1_GWF-(1,39687)
 Backtracking                     158                     1          2       19802.170       8155.8165                                                           
 Model                            158         19                                                            -2.7994570                            1_GWF-(1,39687)
 Backtracking                     159                     1          2       19596.149       8269.0296                                                           
 Model                            159         22                                                            -2.7708848                            1_GWF-(1,39687)
 Backtracking                     160                     1          2       19395.887       8379.1625                                                           
 Model                            160         22                                                            -2.7426752                            1_GWF-(1,39687)
 Backtracking                     161                     1          2       19200.992       8486.2970                                                           
 Model                            161         22                                                            -2.7148244                            1_GWF-(1,39687)
 Backtracking                     162                     1          2       19011.379       8590.5133                                                           
 Model                            162         19                                                            -2.6873232                            1_GWF-(1,39687)
 Backtracking                     163                     1          2       18826.703       8691.8875                                                           
 Model                            163         22                                                            -2.6601709                            1_GWF-(1,39687)
 Backtracking                     164                     1          2       18646.756       8790.4933                                                           
 Model                            164         22                                                            -2.6333546                            1_GWF-(1,39687)
 Backtracking                     165                     1          2       18471.248       8886.4005                                                           
 Model                            165         22                                                            -2.6068696                            1_GWF-(1,39687)
 Backtracking                     166                     1          2       18300.028       8979.6772                                                           
 Model                            166         22                                                            -2.5807100                            1_GWF-(1,39687)
 Backtracking                     167                     1          2       18132.894       9070.3887                                                           
 Model                            167         22                                                            -2.5548694                            1_GWF-(1,39687)
 Backtracking                     168                     1          2       17969.671       9158.5980                                                           
 Model                            168         22                                                            -2.5293424                            1_GWF-(1,39687)
 Backtracking                     169                     1          2       17810.185       9244.3660                                                           
 Model                            169         22                                                            -2.5041230                            1_GWF-(1,39687)
 Backtracking                     170                     1          2       17654.286       9327.7515                                                           
 Model                            170         22                                                            -2.4792058                            1_GWF-(1,39687)
 Backtracking                     171                     1          2       17501.835       9408.8112                                                           
 Model                            171         22                                                            -2.4545853                            1_GWF-(1,39687)
 Backtracking                     172                     1          2       17352.657       9487.5998                                                           
 Model                            172         22                                                            -2.4302553                            1_GWF-(1,39687)
 Backtracking                     173                     1          2       17206.664       9564.1706                                                           
 Model                            173         22                                                            -2.4062134                            1_GWF-(1,39687)
 Backtracking                     174                     1          2       17063.708       9638.5750                                                           
 Model                            174         22                                                            -2.3824532                            1_GWF-(1,39687)
 Backtracking                     175                     1          2       16923.692       9710.8627                                                           
 Model                            175         22                                                            -2.3589704                            1_GWF-(1,39687)
 Backtracking                     176                     1          2       16786.482       9781.0818                                                           
 Model                            176         20                                                            -2.3357603                            1_GWF-(1,39687)
 Backtracking                     177                     1          2       16651.997       9849.2793                                                           
 Model                            177         20                                                            -2.3128176                            1_GWF-(1,39687)
 Backtracking                     178                     1          2       16520.103       9915.5002                                                           
 Model                            178         20                                                            -2.2901384                            1_GWF-(1,39687)
 Backtracking                     179                     1          2       16390.742       9979.7887                                                           
 Model                            179         20                                                            -2.2677186                            1_GWF-(1,39687)
 Backtracking                     180                     1          2       16263.808       10042.187                                                           
 Model                            180         20                                                            -2.2455539                            1_GWF-(1,39687)
 Backtracking                     181                     1          2       16139.237       10102.738                                                           
 Model                            181         20                                                            -2.2236405                            1_GWF-(1,39687)
 Backtracking                     182                     1          2       16016.926       10161.480                                                           
 Model                            182         20                                                            -2.2019741                            1_GWF-(1,39687)
 Backtracking                     183                     1          2       15896.808       10218.454                                                           
 Model                            183         20                                                            -2.1805513                            1_GWF-(1,39687)
 Backtracking                     184                     1          2       15778.817       10273.696                                                           
 Model                            184         20                                                            -2.1593680                            1_GWF-(1,39687)
 Backtracking                     185                     1          2       15662.865       10327.245                                                           
 Model                            185         20                                                            -2.1384205                            1_GWF-(1,39687)
 Backtracking                     186                     1          2       15548.949       10379.137                                                           
 Model                            186         20                                                            -2.1177057                            1_GWF-(1,39687)
 Backtracking                     187                     1          1       15436.899       10882.223                                                           
 Model                            187         20                                                            -1.9133756                            1_GWF-(1,39687)
 Backtracking                     188                     1          1       14428.675       11235.328                                                           
 Model                            188         20                                                            -1.7310024                            1_GWF-(1,39687)
 Backtracking                     189                     1          1       13571.878       11468.114                                                           
 Model                            189         20                                                            -1.5676078                            1_GWF-(1,39687)
 Backtracking                     190                     1          1       12828.863       11603.606                                                           
 Model                            190         18                                                            -1.4208302                            1_GWF-(1,39687)
 Backtracking                     191                     0          0       12174.387       12174.387                       *                                   
 Model                            191         18                                                           -0.47356351                            1_GWF-(2,39928)
 Backtracking                     192                     0          0       6749.9287       6749.9287                       *                                   
 Model                            192         22                                                           -0.46947655                            1_GWF-(1,17423)
 Backtracking                     193                     0          0       6095.5774       6095.5774                       *                                   
 Model                            193         21                                                           -0.25449652                            1_GWF-(1,17423)
 Backtracking                     194                     0          0       4600.5769       4600.5769                       *                                   
 Model                            194         27                                                           -0.22664247                             1_GWF-(2,5421)
 Backtracking                     195                     0          0       4129.0155       4129.0155                       *                                   
 Model                            195         28                                                            0.18844809                            1_GWF-(1,12702)
 Backtracking                     196                     0          0       3448.9563       3448.9563                       *                                   
 Model                            196         32                                                            0.17962489                            1_GWF-(1,12702)
 Backtracking                     197                     0          0       3117.0031       3117.0031                       *                                   
 Model                            197         28                                                            0.16659739                               1_GWF-(1,86)
 Backtracking                     198                     0          0       2772.7218       2772.7218                       *                                   
 Model                            198         30                                                            0.15619287                               1_GWF-(1,86)
 Backtracking                     199                     0          0       2574.8120       2574.8120                       *                                   
 Model                            199         28                                                            0.14259140                               1_GWF-(1,86)
 Backtracking                     200                     0          0       2390.2564       2390.2564                       *                                   
 Model                            200         28                                                            0.12999497                               1_GWF-(1,86)
 Backtracking                     201                     0          0       2264.5004       2264.5004                       *                                   
 Model                            201         30                                                            0.11855996                              1_GWF-(1,146)
 Backtracking                     202                     0          0       2148.4218       2148.4218                       *                                   
 Model                            202         31                                                            0.11280930                              1_GWF-(1,146)
 Backtracking                     203                     0          0       2056.7942       2056.7942                       *                                   
 Model                            203         29                                                            0.10843656                            1_GWF-(1,39828)
 Backtracking                     204                     0          0       1972.2523       1972.2523                       *                                   
 Model                            204         32                                                            0.11055202                            1_GWF-(1,39828)
 Backtracking                     205                     0          0       1899.4577       1899.4577                       *                                   
 Model                            205         33                                                            0.11159080                            1_GWF-(1,39828)
 Backtracking                     206                     0          0       1832.0494       1832.0494                       *                                   
 Model                            206         38                                                            0.11187632                            1_GWF-(1,39828)
 Backtracking                     207                     0          0       1771.6753       1771.6753                       *                                   
 Model                            207         36                                                            0.11155134                            1_GWF-(1,39828)
 Backtracking                     208                     0          0       1715.9260       1715.9260                       *                                   
 Model                            208         39                                                            0.11082266                            1_GWF-(1,39828)
 Backtracking                     209                     0          0       1665.0870       1665.0870                       *                                   
 Model                            209         38                                                            0.10978777                            1_GWF-(1,39828)
 Backtracking                     210                     0          0       1618.0686       1618.0686                       *                                   
 Model                            210         39                                                            0.10857604                            1_GWF-(1,39828)
 Backtracking                     211                     0          0       1574.7443       1574.7443                       *                                   
 Model                            211         38                                                            0.10723452                            1_GWF-(1,39828)
 Backtracking                     212                     0          0       1534.4853       1534.4853                       *                                   
 Model                            212         39                                                            0.10581303                            1_GWF-(1,39828)
 Backtracking                     213                     0          0       1496.9915       1496.9915                       *                                   
 Model                            213         35                                                            0.10434278                            1_GWF-(1,39828)
 Backtracking                     214                     0          0       1461.9510       1461.9510                       *                                   
 Model                            214         39                                                            0.10285886                            1_GWF-(1,39828)
 Backtracking                     215                     0          0       1429.0182       1429.0182                       *                                   
 Model                            215         39                                                            0.10131313                            1_GWF-(1,39828)
[...]
 Backtracking                     239                     0          0       897.69856       897.69856                       *                                   
 Model                            239         40                                                        9.61376183E-02                            1_GWF-(1,33609)
 Backtracking                     240                     0          0       879.67458       879.67458                       *                                   
 Model                            240         34                                                        9.48663677E-02                            1_GWF-(1,33609)
 Backtracking                     241                     0          0       861.83221       861.83221                       *                                   
 Model                            241         34                                                        9.35287695E-02                            1_GWF-(1,33609)
 Backtracking                     242                     0          0       844.00893       844.00893                       *                                   
 Model                            242         34                                                        9.21275868E-02                            1_GWF-(1,33609)
 Backtracking                     243                     0          0       826.42227       826.42227                       *                                   
 Model                            243         34                                                        9.06786200E-02                            1_GWF-(1,33609)
 Backtracking                     244                     0          0       808.90667       808.90667                       *                                   
 Model                            244         34                                                        8.91859053E-02                            1_GWF-(1,33609)
 Backtracking                     245                     0          0       791.46786       791.46786                       *                                   
 Model                            245         35                                                        8.76553764E-02                            1_GWF-(1,33609)
 Backtracking                     246                     0          0       774.11614       774.11614                       *                                   
 Model                            246         32                                                        8.60905611E-02                            1_GWF-(1,33609)
 Backtracking                     247                     0          0       756.89037       756.89037                       *                                   
 Model                            247         32                                                        8.44841269E-02                            1_GWF-(1,33609)
 Backtracking                     248                     0          0       739.66307       739.66307                       *                                   
 Model                            248         49                                                        8.27670294E-02                            1_GWF-(1,33609)
 Backtracking                     249                     0          0       722.77575       722.77575                       *                                   
 Model                            249         32                                                        8.11770403E-02                            1_GWF-(1,33609)
 Backtracking                     250                     0          0       705.38850       705.38850                       *                                   
 Model                            250         39                                                        7.94728212E-02                            1_GWF-(1,33609)
 Backtracking                     251                     0          0       688.57896       688.57896                       *                                   
 Model                            251         50                                                        7.76944208E-02                            1_GWF-(1,33609)
 Backtracking                     252                     0          0       671.78329       671.78329                       *                                   
 Model                            252         39                                                        7.60241473E-02                            1_GWF-(1,33609)
 Backtracking                     253                     0          0       654.53380       654.53380                       *                                   
 Model                            253         41                                                        7.42646559E-02                            1_GWF-(1,33609)
 Backtracking                     254                     0          0       637.99685       637.99685                       *                                   
 Model                            254         44                                                        7.23950575E-02                            1_GWF-(1,33609)
 Backtracking                     255                     0          0       621.27301       621.27301                       *                                   
 Model                            255         46                                                        7.05861350E-02                            1_GWF-(1,33609)
 Backtracking                     256                     0          0       604.46849       604.46849                       *                                   
 Model                            256         44                                                        6.87650423E-02                            1_GWF-(1,33609)
 Backtracking                     257                     0          0       587.80833       587.80833                       *                                   
 Model                            257         38                                                        6.69564924E-02                            1_GWF-(1,33609)
 Backtracking                     258                     0          0       571.07575       571.07575                       *                                   
 Model                            258         43                                                        6.51252627E-02                            1_GWF-(1,33609)
 Backtracking                     259                     0          0       554.53174       554.53174                       *                                   
 Model                            259         49                                                        6.32722409E-02                            1_GWF-(1,33609)
 Backtracking                     260                     0          0       537.94366       537.94366                       *                                   
 Model                            260         45                                                        6.13973257E-02                            1_GWF-(1,33609)
 Backtracking                     261                     0          0       521.48074       521.48074                       *                                   
 Model                            261         45                                                        5.95193080E-02                            1_GWF-(1,33609)
 Backtracking                     262                     0          0       504.96954       504.96954                       *                                   
 Model                            262         40                                                        5.76317394E-02                            1_GWF-(1,33609)
 Backtracking                     263                     0          0       488.58563       488.58563                       *                                   
 Model                            263         48                                                        5.57662766E-02                            1_GWF-(1,33609)
 Backtracking                     264                     0          0       472.04019       472.04019                       *                                   
 Model                            264         40                                                        5.39171750E-02                            1_GWF-(1,33609)
 Backtracking                     265                     0          0       455.71143       455.71143                       *                                   
 Model                            265         48                                                        5.20928515E-02                            1_GWF-(1,33609)
 Backtracking                     266                     0          0       439.20224       439.20224                       *                                   
 Model                            266         51                                                        5.02296126E-02                            1_GWF-(1,33609)
 Backtracking                     267                     0          0       423.06494       423.06494                       *                                   
 Model                            267         45                                                        4.83094378E-02                            1_GWF-(1,33609)
 Backtracking                     268                     0          0       406.85471       406.85471                       *                                   
 Model                            268         38                                                        4.64417672E-02                            1_GWF-(1,33609)
 Backtracking                     269                     0          0       390.69676       390.69676                       *                                   
 Model                            269         43                                                        4.45024411E-02                            1_GWF-(1,33609)
 Backtracking                     270                     0          0       374.49031       374.49031                       *                                   
 Model                            270         38                                                        4.26070272E-02                            1_GWF-(1,33609)
 Backtracking                     271                     0          0       358.64267       358.64267                       *                                   
 Model                            271         44                                                        4.06997753E-02                            1_GWF-(1,33609)
 Backtracking                     272                     0          0       342.17095       342.17095                       *                                   
 Model                            272         38                                                        3.88820929E-02                            1_GWF-(1,33609)
 Backtracking                     273                     0          0       326.47543       326.47543                       *                                   
 Model                            273         45                                                        3.69909716E-02                            1_GWF-(1,33609)
 Backtracking                     274                     0          0       310.20238       310.20238                       *                                   
 Model                            274         45                                                        3.51401280E-02                            1_GWF-(1,33609)
 Backtracking                     275                     0          0       294.51295       294.51295                       *                                   
 Model                            275         43                                                        3.33021679E-02                            1_GWF-(1,33609)
 Backtracking                     276                     0          0       278.50396       278.50396                       *                                   
 Model                            276         43                                                        3.14656184E-02                            1_GWF-(1,33609)
 Backtracking                     277                     0          0       262.89260       262.89260                       *                                   
 Model                            277         45                                                        2.96291774E-02                            1_GWF-(1,33609)
 Backtracking                     278                     0          0       247.17423       247.17423                       *                                   
 Model                            278         45                                                        2.77943972E-02                            1_GWF-(1,33609)
 Backtracking                     279                     0          0       231.68811       231.68811                       *                                   
 Model                            279         44                                                        2.59605318E-02                            1_GWF-(1,33609)
 Backtracking                     280                     0          0       216.22591       216.22591                       *                                   
 Model                            280         52                                                        2.41071626E-02                            1_GWF-(1,33609)
 Backtracking                     281                     0          0       200.88394       200.88394                       *                                   
 Model                            281         44                                                        2.23535424E-02                            1_GWF-(1,33609)
 Backtracking                     282                     0          0       185.62070       185.62070                       *                                   
 Model                            282         53                                                        2.05042745E-02                            1_GWF-(1,33609)
 Backtracking                     283                     0          0       170.68645       170.68645                       *                                   
 Model                            283         44                                                        1.87865688E-02                            1_GWF-(1,33609)
 Backtracking                     284                     0          0       155.64957       155.64957                       *                                   
 Model                            284         49                                                        1.70170004E-02                            1_GWF-(1,33609)
 Backtracking                     285                     0          0       141.06594       141.06594                       *                                   
 Model                            285         57                                                        1.52619730E-02                            1_GWF-(1,33609)
 Backtracking                     286                     0          0       126.46635       126.46635                       *                                   
 Model                            286         52                                                        1.35413823E-02                            1_GWF-(1,33609)
 Backtracking                     287                     0          0       112.38807       112.38807                       *                                   
 Model                            287         57                                                        1.18979300E-02                            1_GWF-(1,33609)
 Backtracking                     288                     0          0       98.279502       98.279502                       *                                   
 Model                            288         54                                                        1.02815878E-02                            1_GWF-(1,33609)
 Backtracking                     289                     0          0       84.976511       84.976511                       *                                   
 Model                            289         59                                                        8.70888568E-03                            1_GWF-(1,33609)
 Backtracking                     290                     0          0       71.853691       71.853691                       *                                   
 Model                            290         54                                                        7.21521012E-03                            1_GWF-(1,33609)
 Backtracking                     291                     0          0       59.371059       59.371059                       *                                   
 Model                            291         44                                                        5.81398362E-03                            1_GWF-(1,33609)
 Backtracking                     292                     0          0       47.900404       47.900404                       *                                   
 Model                            292         55                                                        4.48433093E-03                            1_GWF-(1,33609)
 Backtracking                     293                     0          0       36.819462       36.819462                       *                                   
 Model                            293         45                                                        3.30711692E-03                            1_GWF-(1,13901)
 Backtracking                     294                     0          0       27.460298       27.460298                       *                                   
 Model                            294         44                                                        2.32980627E-03                            1_GWF-(1,39828)
 Backtracking                     295                     0          0       19.067074       19.067074                       *                                   
 Model                            295         15                                                        1.45397307E-03                            1_GWF-(1,39828)
 Backtracking                     296                     0          0       9.1637572       9.1637572                       *                                   
 Model                            296         41                                                        1.24942589E-03                            1_GWF-(1,39828)
 Backtracking                     297                     4          0       9.9347829       9.9347829                       *                                   
 Model                            297         42                                                        8.45291149E-04       *                    1_GWF-(1,39828)
 ----------------------------------------------------------------------------------------------------------------------------------------------------------------


 297 CALLS TO NUMERICAL SOLUTION IN TIME STEP 1 STRESS PERIOD 1
 10765 TOTAL ITERATIONS

 MEMORY MANAGER TOTAL STORAGE BY DATA TYPE, IN MEGABYTES
 -------------------------------
                    ALLOCATED   
 DATA TYPE           MEMORY     
 -------------------------------
 Character        1.01880000E-02
 Logical          4.80000000E-05
 Integer          29.717644     
 Real             61.038104     
 -------------------------------
 Total            90.765984     
 Virtual          0.0000000     
 -------------------------------


 
 Run end date and time (yyyy/mm/dd hh:mm:ss): 2026/02/09 22:30:19
 Elapsed run time:  1 Minutes, 27.181 Seconds
 Normal termination of simulation.
