                                   MODFLOW 6
                U.S. GEOLOGICAL SURVEY MODULAR HYDROLOGIC MODEL
                          GROUNDWATER FLOW MODEL (GWF)
                            VERSION 6.6.0 12/20/2024

   MODFLOW 6 compiled Dec 31 2024 17:10:16 with Intel(R) Fortran Intel(R) 64
   Compiler Classic for applications running on Intel(R) 64, Version 2021.7.0
                             Build 20220726_000000

This software has been approved for release by the U.S. Geological 
Survey (USGS). Although the software has been subjected to rigorous 
review, the USGS reserves the right to update the software as needed 
pursuant to further analysis and review. No warranty, expressed or 
implied, is made by the USGS or the U.S. Government as to the 
functionality of the software and related material nor shall the 
fact of release constitute any such warranty. Furthermore, the 
software is released on condition that neither the USGS nor the U.S. 
Government shall be held liable for any damages resulting from its 
authorized or unauthorized use. Also refer to the USGS Water 
Resources Software User Rights Notice for complete use, copyright, 
and distribution information.


As a work of the United States Government, this USGS product is 
in the public domain within the United States. You can copy, 
modify, distribute, and perform the work, even for commercial 
purposes, all without asking permission. Additionally, USGS 
waives copyright and related rights in the work worldwide 
through CC0 1.0 Universal Public Domain Dedication 
(https://creativecommons.org/publicdomain/zero/1.0/).

The following GNU Lesser General Public License (LGPL) libraries
are used in this USGS product:

    SPARSKIT version 2.0
      ilut, luson, and qsplit 
      (https://www-users.cse.umn.edu/~saad/software/SPARSKIT/)

    RCM - Reverse Cuthill McKee Ordering
      (https://people.math.sc.edu/Burkardt/f_src/rcm/rcm.html)

    BLAS - Basic Linear Algebra Subprograms Level 1
      (https://people.math.sc.edu/Burkardt/f_src/blas1_d/blas1_d.html)

    SPARSEKIT - Sparse Matrix Utility Package
      amux, dperm, dvperm, rperm, and cperm
      (https://people.sc.fsu.edu/~jburkardt/f77_src/sparsekit/sparsekit.html)

The following BSD-3 License libraries are used in this USGS product:

    Modern Fortran DAG Library
      Copyright (c) 2018, Jacob Williams
      All rights reserved.
      (https://github.com/jacobwilliams/daglib)

MODFLOW 6 compiler options: /O2 /heap-arrays:0 /fpe:0 /traceback /nologo /fpp
/c /module:win64\mod_mf6\ /object:win64\obj_mf6\

System command used to initiate simulation:
mf6

MODFLOW was compiled using uniform precision.

Real Variables
  KIND: 8
  TINY (smallest non-zero value):    2.225074-308
  HUGE (largest value):    1.797693+308
  PRECISION: 15
  SIZE IN BITS: 64

Integer Variables
  KIND: 4
  HUGE (largest value): 2147483647
  SIZE IN BITS: 32

Long Integer Variables
  KIND: 8
  HUGE (largest value): 9223372036854775807
  SIZE IN BITS: 64

Logical Variables
  KIND: 4
  SIZE IN BITS: 32
 
 NAMEFILE OPTIONS:
    FLOWS WILL BE SAVED TO BUDGET FILE SPECIFIED IN OUTPUT CONTROL
 END NAMEFILE OPTIONS:

 DISV -- VERTEX GRID DISCRETIZATION PACKAGE, VERSION 1 : 12/23/2015 - INPUT READ FROM MEMPATH: __INPUT__/VORONOI_CASEA/DISV                      


 Setting Discretization Options
 End Setting Discretization Options

 Setting Discretization Dimensions
    NLAY = 2
    NCPL = 3044
    NVERT = 8777
 End Setting Discretization Dimensions

 Setting Discretization Griddata
    TOP set from input file
    BOTM set from input file
 End Setting Discretization Griddata

 Discretization Vertex data loaded
 Discretization Cell2d data loaded

 NPF -- NODE PROPERTY FLOW PACKAGE, VERSION 1, 3/30/2015 INPUT READ FROM MEMPATH: __INPUT__/VORONOI_CASEA/NPF                       


 IC -- Initial Conditions Package, Version 8, 3/28/2015 input read from mempath: __INPUT__/VORONOI_CASEA/IC                        


 Setting NPF Options
    Cell-by-cell flow information will be saved to binary file whenever ICBCFL is not zero.
    Specific discharge will be calculated at cell centers and written to DATA-SPDIS in budget file when requested.
 End Setting NPF Options

 Setting NPF Griddata
    ICELLTYPE set from input file
    K set from input file
    K33 not provided.  Setting K33 = K.
    K22 not provided.  Setting K22 = K.
 End Setting NPF Griddata


 WEL   -- WEL PACKAGE, VERSION 8, 2/22/2014 INPUT READ FROM MEMPATH: __INPUT__/VORONOI_CASEA/WELL_PACKAGE              

 PROCESSING WEL BASE OPTIONS
    FLOWS WILL BE SAVED TO BUDGET FILE SPECIFIED IN OUTPUT CONTROL
 END OF WEL BASE OPTIONS

 PROCESSING WEL OPTIONS
 END OF WEL OPTIONS

 PROCESSING WEL BASE DIMENSIONS
    MAXBOUND =    4310
 END OF WEL BASE DIMENSIONS

 RCH   -- RCH PACKAGE, VERSION 8, 2/22/2014 INPUT READ FROM MEMPATH: __INPUT__/VORONOI_CASEA/RCH                       

 PROCESSING RCH BASE OPTIONS
    FLOWS WILL BE SAVED TO BUDGET FILE SPECIFIED IN OUTPUT CONTROL
    RCH FLOWS WILL BE PRINTED TO LISTING FILE.
 END OF RCH BASE OPTIONS

 PROCESSING RCH OPTIONS
    RECHARGE WILL BE APPLIED TO SPECIFIED CELL.
 END OF RCH OPTIONS

 PROCESSING RCH BASE DIMENSIONS
    MAXBOUND =    3044
 END OF RCH BASE DIMENSIONS

 EVT   -- EVT PACKAGE, VERSION 8, 2/22/2014 INPUT READ FROM MEMPATH: __INPUT__/VORONOI_CASEA/EVT                       

 PROCESSING EVT BASE OPTIONS
    FLOWS WILL BE SAVED TO BUDGET FILE SPECIFIED IN OUTPUT CONTROL
 END OF EVT BASE OPTIONS

 PROCESSING EVT OPTIONS
 END OF EVT OPTIONS

 PROCESSING EVT BASE DIMENSIONS
    MAXBOUND =    2117
 END OF EVT BASE DIMENSIONS

 PROCESSING EVT DIMENSIONS
    NSEG = 1
 END OF EVT DIMENSIONS

 CHD   -- CHD PACKAGE, VERSION 8, 2/22/2014 INPUT READ FROM MEMPATH: __INPUT__/VORONOI_CASEA/CHD                       

 PROCESSING CHD BASE OPTIONS
    FLOWS WILL BE SAVED TO BUDGET FILE SPECIFIED IN OUTPUT CONTROL
 END OF CHD BASE OPTIONS

 PROCESSING CHD BASE DIMENSIONS
    MAXBOUND =    2372
 END OF CHD BASE DIMENSIONS
    STRT set from input file
    BINARY GRID INFORMATION WILL BE WRITTEN TO:
      UNIT NUMBER: 1016
      FILE NAME: voronoi_caseA.disv.grb

 OPENED voronoi_caseA.disv.grb
 FILE TYPE:DATA(BINARY)   UNIT 1016   STATUS:REPLACE             
 FORMAT:UNFORMATTED            ACCESS:STREAM              
 ACTION:READWRITE           

      THE LAST TIME STEP WILL BE PRINTED
      THE LAST TIME STEP WILL BE PRINTED
 # File generated by Flopy version 3.9.1 on 02/10/2026 at 20:25:42.

 PROCESSING OC OPTIONS

    BUDGET INFORMATION WILL BE WRITTEN TO:
      UNIT NUMBER: 1017
      FILE NAME: voronoi_caseA.cbc

 OPENED voronoi_caseA.cbc
 FILE TYPE:DATA(BINARY)   UNIT 1017   STATUS:REPLACE             
 FORMAT:UNFORMATTED            ACCESS:STREAM              
 ACTION:READWRITE           

    HEAD INFORMATION WILL BE WRITTEN TO:
      UNIT NUMBER: 1018
      FILE NAME: voronoi_caseA.hds

 OPENED voronoi_caseA.hds
 FILE TYPE:DATA(BINARY)   UNIT 1018   STATUS:REPLACE             
 FORMAT:UNFORMATTED            ACCESS:STREAM              
 ACTION:READWRITE           

 END OF OC OPTIONS

start timestep kper="1" kstp="1" mode="normal"


 BEGIN READING OUTPUT CONTROL FOR STRESS PERIOD 1
      THE LAST TIME STEP WILL BE SAVED
      THE LAST TIME STEP WILL BE SAVED
      THE LAST TIME STEP WILL BE PRINTED

 END READING OUTPUT CONTROL FOR STRESS PERIOD 1
 UBDSV1 SAVING     FLOW-JA-FACE ON UNIT   1017 AT TIME STEP      1, STRESS PERIOD      1
 UBDSV06 SAVING       DATA-SPDIS IN MODEL VORONOI_CASEA    PACKAGE NPF             CONNECTED TO MODEL VORONOI_CASEA    PACKAGE NPF              ON UNIT   1017 AT TIME STEP      1, STRESS PERIOD      1
 UBDSV06 SAVING              WEL IN MODEL VORONOI_CASEA    PACKAGE VORONOI_CASEA   CONNECTED TO MODEL VORONOI_CASEA    PACKAGE WELL_PACKAGE     ON UNIT   1017 AT TIME STEP      1, STRESS PERIOD      1
 UBDSV06 SAVING              RCH IN MODEL VORONOI_CASEA    PACKAGE VORONOI_CASEA   CONNECTED TO MODEL VORONOI_CASEA    PACKAGE RCH              ON UNIT   1017 AT TIME STEP      1, STRESS PERIOD      1
 UBDSV06 SAVING              EVT IN MODEL VORONOI_CASEA    PACKAGE VORONOI_CASEA   CONNECTED TO MODEL VORONOI_CASEA    PACKAGE EVT              ON UNIT   1017 AT TIME STEP      1, STRESS PERIOD      1
 UBDSV06 SAVING              CHD IN MODEL VORONOI_CASEA    PACKAGE VORONOI_CASEA   CONNECTED TO MODEL VORONOI_CASEA    PACKAGE CHD              ON UNIT   1017 AT TIME STEP      1, STRESS PERIOD      1

 RCH PACKAGE (RCH) FLOW RATES   PERIOD      1   STEP        1
 -----------------------------------------------
   NUMBER   CELLID                    RATE      
 -----------------------------------------------
     1      (1,1)                 0.0000000     
     2      (1,2)                 0.0000000     
     3      (1,3)                 0.0000000     
     4      (1,4)                 0.0000000     
     5      (1,5)                 0.0000000     
     6      (1,6)                 0.0000000     
     7      (1,7)                 0.0000000     
     8      (1,8)                 0.0000000     
     9      (1,9)                 0.0000000     
     10     (1,10)                0.0000000     
     11     (1,11)                0.0000000     
     12     (1,12)                0.0000000     
     13     (1,13)                0.0000000     
     14     (1,14)                0.0000000     
     15     (1,15)                0.0000000     
     16     (1,16)                0.0000000     
     17     (1,17)                0.0000000     
     18     (1,18)                0.0000000     
     19     (1,19)                0.0000000     
     20     (1,20)                0.0000000     
     21     (1,21)                0.0000000     
     22     (1,22)                0.0000000     
     23     (1,23)                0.0000000     
     24     (1,24)                0.0000000     
     25     (1,25)                0.0000000     
     26     (1,26)                0.0000000     
     27     (1,27)                0.0000000     
     28     (1,28)                0.0000000     
     29     (1,29)                0.0000000     
     30     (1,30)                0.0000000     
     31     (1,31)                0.0000000     
     32     (1,32)                0.0000000     
     33     (1,33)                0.0000000     
     34     (1,34)                0.0000000     
     35     (1,35)                0.23653099    
     36     (1,36)                0.21240724    
     37     (1,37)                0.13488516    
     38     (1,38)                0.26283010    
     39     (1,39)                0.12112261    
     40     (1,40)                6.50776077E-02
     41     (1,41)                0.12066271    
     42     (1,42)                5.82692496E-02
     43     (1,43)                0.11308833    
     44     (1,44)                0.17588603    
     45     (1,45)                8.14476062E-04
     46     (1,46)                3.64689182E-02
     47     (1,47)                0.11085531    
     48     (1,48)                2.82796553E-03
     49     (1,49)                4.49369782E-02
     50     (1,50)                0.15024203    
     51     (1,51)                0.20524585    
     52     (1,52)                0.11446022    
     53     (1,53)                2.44448848E-02
     54     (1,54)                8.38380892E-03
     55     (1,55)                4.40489920E-02
     56     (1,56)                5.99186143E-03
     57     (1,57)                1.54944027E-03
     58     (1,58)                1.74057721E-02
     59     (1,59)                1.14376224E-02
     60     (1,60)                0.16581211    
     61     (1,61)                0.26341345    
     62     (1,62)                3.82249488E-02
     63     (1,63)                9.55774490E-02
     64     (1,64)                0.17159152    
     65     (1,65)                4.42166526E-03
     66     (1,66)                4.12387767E-02
     67     (1,67)                6.51590493E-03
     68     (1,68)                1.68016202E-04
     69     (1,69)                2.26943848E-03
     70     (1,70)                4.12686088E-03
     71     (1,71)                3.28714041E-03
     72     (1,72)                1.79477910E-03
     73     (1,73)                2.63384518E-03
     74     (1,74)                3.98177717E-03
     75     (1,75)                7.91853726E-02
     76     (1,76)                0.18960808    
     77     (1,77)                2.68663739E-02
     78     (1,78)                2.14183704E-03
     79     (1,79)                5.96540912E-04
     80     (1,80)                1.54129504E-02
     81     (1,81)                1.24861404E-02
     82     (1,82)                1.77769026E-02
     83     (1,83)                8.06606847E-04
     84     (1,84)                4.28777763E-03
     85     (1,85)                3.98088917E-04
     86     (1,86)                3.78383976E-04
     87     (1,87)                1.71062571E-02
     88     (1,88)                1.31489220E-02
     89     (1,89)                2.70540502E-03
     90     (1,90)                4.18322618E-03
     91     (1,91)                3.00096726E-03
     92     (1,92)                1.71726382E-03
     93     (1,93)                7.86763125E-03
     94     (1,94)                1.40427374E-02
     95     (1,95)                3.40289378E-04
     96     (1,96)                3.31017533E-02
     97     (1,97)                3.17115903E-03
     98     (1,98)                3.52671526E-02
     99     (1,99)                1.10242323E-03
    100     (1,100)               7.10720918E-03
    101     (1,101)               1.11025183E-02
    102     (1,102)               2.40678092E-03
    103     (1,103)               2.01622500E-02
    104     (1,104)               1.67125901E-02
    105     (1,105)               4.70062359E-03
    106     (1,106)               3.15950128E-02
    107     (1,107)               1.77684332E-03
    108     (1,108)               2.59890097E-02
    109     (1,109)               2.39703541E-02
    110     (1,110)               7.06087605E-04
    111     (1,111)               8.89009772E-04
    112     (1,112)               9.22275751E-03
    113     (1,113)               3.33461130E-03
    114     (1,114)               7.59185333E-03
    115     (1,115)               2.19103314E-05
    116     (1,116)               2.26121063E-04
    117     (1,117)               1.59898645E-04
    118     (1,118)               1.39184872E-03
    119     (1,119)               5.18520059E-04
    120     (1,120)               3.37025760E-04
    121     (1,121)               4.68817725E-03
    122     (1,122)               1.58060007E-02
    123     (1,123)               5.24798707E-03
    124     (1,124)               4.06486873E-04
    125     (1,125)               1.50765578E-02
    126     (1,126)               9.25420704E-03
    127     (1,127)               4.68676442E-03
    128     (1,128)               1.28921983E-02
    129     (1,129)               1.10014859E-03
    130     (1,130)               0.15872998    
    131     (1,131)               9.68616028E-03
    132     (1,132)               1.03475457E-02
    133     (1,133)               3.85043218E-04
    134     (1,134)               3.16012744E-02
    135     (1,135)               1.79975873E-02
    136     (1,136)               5.68276519E-03
    137     (1,137)               2.73683595E-03
    138     (1,138)               1.08502152E-02
    139     (1,139)               1.52800829E-02
    140     (1,140)               1.63718159E-02
    141     (1,141)               4.71200135E-03
    142     (1,142)               3.63372473E-02
    143     (1,143)               2.05492903E-02
    144     (1,144)               1.66549555E-02
    145     (1,145)               5.16073861E-02
    146     (1,146)               2.20301504E-03
    147     (1,147)               4.74609184E-02
    148     (1,148)               6.19558624E-02
    149     (1,149)               6.82731042E-03
    150     (1,150)               1.90789127E-02
    151     (1,151)               5.17010621E-03
    152     (1,152)               0.14816515    
    153     (1,153)               2.54609230E-02
    154     (1,154)               0.27910884    
    155     (1,155)               0.23683621    
    156     (1,156)               1.10962042E-03
    157     (1,157)               2.49981873E-02
    158     (1,158)               1.60635820E-02
    159     (1,159)               1.75389322E-02
    160     (1,160)               6.87317388E-02
    161     (1,161)               3.01579549E-02
    162     (1,162)               8.09671073E-03
    163     (1,163)               0.14088885    
    164     (1,164)               0.33136938    
    165     (1,165)               6.30736377E-02
    166     (1,166)               3.76068126E-02
    167     (1,167)               2.97315796E-02
    168     (1,168)               2.34390921E-02
    169     (1,169)               0.12433869    
    170     (1,170)               0.15141796    
    171     (1,171)               9.39867931E-03
    172     (1,172)               0.19065410    
    173     (1,173)               9.17117472E-02
    174     (1,174)               8.42270059E-02
    175     (1,175)               0.15218276    
    176     (1,176)               0.12270092    
    177     (1,177)               2.67380561E-02
    178     (1,178)               2.86991782E-02
    179     (1,179)               5.33718559E-03
    180     (1,180)               8.47503424E-02
    181     (1,181)               0.27072220    
    182     (1,182)               6.29781930E-02
    183     (1,183)               0.11296747    
    184     (1,184)               4.52269170E-03
    185     (1,185)               4.32290874E-02
    186     (1,186)               7.99789048E-02
    187     (1,187)               0.22312603    
    188     (1,188)               8.07198587E-03
    189     (1,189)               9.23987263E-02
    190     (1,190)               7.96109018E-03
    191     (1,191)               0.26563861    
    192     (1,192)               0.15919745    
    193     (1,193)               3.37926102E-02
    194     (1,194)               1.68745220E-02
    195     (1,195)               1.37354838E-02
    196     (1,196)               1.35993278E-02
    197     (1,197)               2.24700327E-03
    198     (1,198)               4.53765000E-02
    199     (1,199)               0.21394596    
    200     (1,200)               8.97835474E-02
    201     (1,201)               0.17038382    
    202     (1,202)               5.55429015E-02
    203     (1,203)               0.10465867    
    204     (1,204)               0.27058294    
    205     (1,205)               0.35491006    
    206     (1,206)               6.09417770E-02
    207     (1,207)               4.35794589E-02
    208     (1,208)               2.52289646E-02
    209     (1,209)               9.08154615E-03
    210     (1,210)               6.14703065E-03
    211     (1,211)               1.19420658E-02
    212     (1,212)               2.17479330E-03
    213     (1,213)               7.59332671E-04
    214     (1,214)               9.81577662E-05
    215     (1,215)               1.03314824E-04
    216     (1,216)               4.03318557E-03
    217     (1,217)               2.47328820E-02
    218     (1,218)               6.14230243E-03
    219     (1,219)               3.95857478E-02
    220     (1,220)               8.05130710E-03
    221     (1,221)               2.60897019E-04
    222     (1,222)               2.57843062E-03
    223     (1,223)               3.31488510E-03
    224     (1,224)               1.90566552E-02
    225     (1,225)               2.03024628E-02
    226     (1,226)               5.56937819E-03
    227     (1,227)               1.95276946E-02
    228     (1,228)               2.25413732E-03
    229     (1,229)               1.70580130E-02
    230     (1,230)               2.32975769E-02
    231     (1,231)               1.85148375E-02
    232     (1,232)               9.96052483E-03
    233     (1,233)               3.16559796E-03
    234     (1,234)               0.12723409    
    235     (1,235)               0.11518244    
    236     (1,236)               0.12546143    
    237     (1,237)               3.55911620E-03
    238     (1,238)               1.72355916E-02
    239     (1,239)               3.91434649E-03
    240     (1,240)               1.27049404E-02
    241     (1,241)               5.42194486E-02
    242     (1,242)               0.27547123    
    243     (1,243)               8.81820516E-02
    244     (1,244)               7.39022309E-02
    245     (1,245)               0.18281376    
    246     (1,246)               3.54944576E-03
    247     (1,247)               2.30954298E-04
    248     (1,248)               2.46965825E-04
    249     (1,249)               1.07889436E-03
    250     (1,250)               6.98036311E-04
    251     (1,251)               4.76400323E-06
    252     (1,252)               5.76951947E-07
    253     (1,253)               3.83989397E-06
    254     (1,254)               9.18248271E-03
    255     (1,255)               4.56962679E-02
    256     (1,256)               7.55517342E-02
    257     (1,257)               5.30520455E-02
    258     (1,258)               4.97494178E-02
    259     (1,259)               5.16906671E-02
    260     (1,260)               0.0000000     
    261     (1,261)               0.0000000     
    262     (1,262)               0.0000000     
    263     (1,263)               0.0000000     
    264     (1,264)               0.0000000     
    265     (1,265)               0.0000000     
    266     (1,266)               0.0000000     
    267     (1,267)               0.0000000     
    268     (1,268)               0.0000000     
    269     (1,269)               0.0000000     
    270     (1,270)               0.0000000     
    271     (1,271)               0.0000000     
    272     (1,272)               0.0000000     
    273     (1,273)               0.0000000     
    274     (1,274)               0.0000000     
    275     (1,275)               0.0000000     
    276     (1,276)               0.0000000     
    277     (1,277)               0.0000000     
    278     (1,278)               0.0000000     
    279     (1,279)               0.0000000     
    280     (1,280)               0.0000000     
    281     (1,281)               0.0000000     
    282     (1,282)               0.0000000     
    283     (1,283)               0.0000000     
    284     (1,284)               0.0000000     
    285     (1,285)               0.0000000     
    286     (1,286)               0.0000000     
    287     (1,287)               0.0000000     
    288     (1,288)               0.0000000     
    289     (1,289)               0.0000000     
    290     (1,290)               0.0000000     
    291     (1,291)               0.0000000     
    292     (1,292)               0.0000000     
    293     (1,293)               0.0000000     
    294     (1,294)               0.0000000     
    295     (1,295)               0.0000000     
    296     (1,296)               0.0000000     
    297     (1,297)               0.0000000     
    298     (1,298)               0.0000000     
    299     (1,299)               0.0000000     
    300     (1,300)               0.0000000     
    301     (1,301)               0.0000000     
    302     (1,302)               0.0000000     
    303     (1,303)               0.0000000     
    304     (1,304)               0.0000000     
    305     (1,305)               0.0000000     
    306     (1,306)               0.0000000     
    307     (1,307)               0.0000000     
    308     (1,308)               0.0000000     
    309     (1,309)               0.0000000     
    310     (1,310)               0.0000000     
    311     (1,311)               0.0000000     
    312     (1,312)               0.0000000     
    313     (1,313)               0.0000000     
    314     (1,314)               0.0000000     
    315     (1,315)               0.0000000     
    316     (1,316)               0.0000000     
    317     (1,317)               0.0000000     
    318     (1,318)               0.0000000     
    319     (1,319)               0.0000000     
    320     (1,320)               0.0000000     
    321     (1,321)               0.0000000     
    322     (1,322)               0.0000000     
    323     (1,323)               0.0000000     
    324     (1,324)               0.0000000     
    325     (1,325)               0.0000000     
    326     (1,326)               0.0000000     
    327     (1,327)               0.0000000     
    328     (1,328)               0.0000000     
    329     (1,329)               0.0000000     
    330     (1,330)               0.0000000     
    331     (1,331)               0.0000000     
    332     (1,332)               0.0000000     
    333     (1,333)               0.0000000     
    334     (1,334)               0.0000000     
    335     (1,335)               0.0000000     
    336     (1,336)               0.0000000     
    337     (1,337)               0.0000000     
    338     (1,338)               0.0000000     
    339     (1,339)               0.0000000     
    340     (1,340)               0.0000000     
    341     (1,341)               0.0000000     
    342     (1,342)               0.0000000     
    343     (1,343)               0.0000000     
    344     (1,344)               0.0000000     
    345     (1,345)               0.0000000     
    346     (1,346)               0.0000000     
    347     (1,347)               0.0000000     
    348     (1,348)               0.0000000     
    349     (1,349)               0.0000000     
    350     (1,350)               0.0000000     
    351     (1,351)               0.0000000     
    352     (1,352)               0.0000000     
    353     (1,353)               0.0000000     
    354     (1,354)               0.0000000     
    355     (1,355)               0.0000000     
    356     (1,356)               0.0000000     
    357     (1,357)               0.0000000     
    358     (1,358)               0.0000000     
    359     (1,359)               0.0000000     
    360     (1,360)               0.0000000     
    361     (1,361)               0.0000000     
    362     (1,362)               0.0000000     
    363     (1,363)               0.0000000     
    364     (1,364)               0.0000000     
    365     (1,365)               0.0000000     
    366     (1,366)               0.0000000     
    367     (1,367)               0.0000000     
    368     (1,368)               0.0000000     
    369     (1,369)               0.0000000     
    370     (1,370)               0.0000000     
    371     (1,371)               0.0000000     
    372     (1,372)               0.0000000     
    373     (1,373)               0.0000000     
    374     (1,374)               0.0000000     
    375     (1,375)               0.0000000     
    376     (1,376)               0.0000000     
    377     (1,377)               0.0000000     
    378     (1,378)               0.0000000     
    379     (1,379)               0.0000000     
    380     (1,380)               0.0000000     
    381     (1,381)               0.0000000     
    382     (1,382)               0.0000000     
    383     (1,383)               0.0000000     
    384     (1,384)               0.0000000     
    385     (1,385)               0.0000000     
    386     (1,386)               0.0000000     
    387     (1,387)               0.0000000     
    388     (1,388)               0.0000000     
    389     (1,389)               0.0000000     
    390     (1,390)               0.0000000     
    391     (1,391)               0.0000000     
    392     (1,392)               0.0000000     
    393     (1,393)               0.0000000     
    394     (1,394)               0.0000000     
    395     (1,395)               0.0000000     
    396     (1,396)               0.0000000     
    397     (1,397)               0.0000000     
    398     (1,398)               0.0000000     
    399     (1,399)               0.0000000     
    400     (1,400)               0.0000000     
    401     (1,401)               0.0000000     
    402     (1,402)               0.0000000     
    403     (1,403)               0.0000000     
    404     (1,404)               0.0000000     
    405     (1,405)               0.0000000     
    406     (1,406)               0.0000000     
    407     (1,407)               0.0000000     
    408     (1,408)               0.0000000     
    409     (1,409)               0.0000000     
    410     (1,410)               0.0000000     
    411     (1,411)               0.0000000     
    412     (1,412)               0.0000000     
    413     (1,413)               0.0000000     
    414     (1,414)               0.0000000     
    415     (1,415)               0.0000000     
    416     (1,416)               0.0000000     
    417     (1,417)               0.0000000     
    418     (1,418)               0.0000000     
    419     (1,419)               0.0000000     
    420     (1,420)               0.0000000     
    421     (1,421)               0.0000000     
    422     (1,422)               0.0000000     
    423     (1,423)               0.0000000     
    424     (1,424)               0.0000000     
    425     (1,425)               0.0000000     
    426     (1,426)               0.0000000     
    427     (1,427)               0.0000000     
    428     (1,428)               0.0000000     
    429     (1,429)               0.0000000     
    430     (1,430)               0.0000000     
    431     (1,431)               0.0000000     
    432     (1,432)               0.0000000     
    433     (1,433)               0.0000000     
    434     (1,434)               0.0000000     
    435     (1,435)               0.0000000     
    436     (1,436)               0.0000000     
    437     (1,437)               0.0000000     
    438     (1,438)               0.0000000     
    439     (1,439)               0.0000000     
    440     (1,440)               0.0000000     
    441     (1,441)               0.0000000     
    442     (1,442)               0.0000000     
    443     (1,443)               0.0000000     
    444     (1,444)               0.0000000     
    445     (1,445)               0.0000000     
    446     (1,446)               0.0000000     
    447     (1,447)               0.0000000     
    448     (1,448)               0.0000000     
    449     (1,449)               0.0000000     
    450     (1,450)               0.0000000     
    451     (1,451)               0.0000000     
    452     (1,452)               0.0000000     
    453     (1,453)               0.0000000     
    454     (1,454)               0.0000000     
    455     (1,455)               0.0000000     
    456     (1,456)               0.0000000     
    457     (1,457)               0.0000000     
    458     (1,458)               0.0000000     
    459     (1,459)               0.0000000     
    460     (1,460)               0.0000000     
    461     (1,461)               0.0000000     
    462     (1,462)               0.0000000     
    463     (1,463)               0.0000000     
    464     (1,464)               0.0000000     
    465     (1,465)               0.0000000     
    466     (1,466)               0.0000000     
    467     (1,467)               0.0000000     
    468     (1,468)               0.0000000     
    469     (1,469)               0.0000000     
    470     (1,470)               0.0000000     
    471     (1,471)               0.0000000     
    472     (1,472)               0.0000000     
    473     (1,473)               0.0000000     
    474     (1,474)               0.0000000     
    475     (1,475)               0.0000000     
    476     (1,476)               0.0000000     
    477     (1,477)               0.0000000     
    478     (1,478)               0.0000000     
    479     (1,479)               0.0000000     
    480     (1,480)               0.0000000     
    481     (1,481)               0.0000000     
    482     (1,482)               0.0000000     
    483     (1,483)               0.0000000     
    484     (1,484)               0.0000000     
    485     (1,485)               0.0000000     
    486     (1,486)               0.0000000     
    487     (1,487)               0.0000000     
    488     (1,488)               0.0000000     
    489     (1,489)               0.0000000     
    490     (1,490)               0.0000000     
    491     (1,491)               0.0000000     
    492     (1,492)               0.0000000     
    493     (1,493)               0.0000000     
    494     (1,494)               0.0000000     
    495     (1,495)               0.0000000     
    496     (1,496)               0.0000000     
    497     (1,497)               0.0000000     
    498     (1,498)               0.0000000     
    499     (1,499)               0.0000000     
    500     (1,500)               0.0000000     
    501     (1,501)               0.0000000     
    502     (1,502)               0.0000000     
    503     (1,503)               0.0000000     
    504     (1,504)               0.0000000     
    505     (1,505)               0.0000000     
    506     (1,506)               0.0000000     
    507     (1,507)               0.0000000     
    508     (1,508)               0.0000000     
    509     (1,509)               0.0000000     
    510     (1,510)               0.0000000     
    511     (1,511)               0.0000000     
    512     (1,512)               0.0000000     
    513     (1,513)               0.0000000     
    514     (1,514)               0.0000000     
    515     (1,515)               0.0000000     
    516     (1,516)               0.0000000     
    517     (1,517)               0.0000000     
    518     (1,518)               0.0000000     
    519     (1,519)               0.0000000     
    520     (1,520)               0.0000000     
    521     (1,521)               0.0000000     
    522     (1,522)               0.0000000     
    523     (1,523)               0.0000000     
    524     (1,524)               0.0000000     
    525     (1,525)               0.0000000     
    526     (1,526)               0.0000000     
    527     (1,527)               0.0000000     
    528     (1,528)               0.0000000     
    529     (1,529)               0.0000000     
    530     (1,530)               0.0000000     
    531     (1,531)               0.0000000     
    532     (1,532)               0.0000000     
    533     (1,533)               0.0000000     
    534     (1,534)               0.0000000     
    535     (1,535)               0.0000000     
    536     (1,536)               0.0000000     
    537     (1,537)               0.0000000     
    538     (1,538)               0.0000000     
    539     (1,539)               0.0000000     
    540     (1,540)               0.0000000     
    541     (1,541)               0.0000000     
    542     (1,542)               0.0000000     
    543     (1,543)               0.0000000     
    544     (1,544)               0.0000000     
    545     (1,545)               0.0000000     
    546     (1,546)               0.0000000     
    547     (1,547)               0.0000000     
    548     (1,548)               0.0000000     
    549     (1,549)               0.0000000     
    550     (1,550)               0.0000000     
    551     (1,551)               0.0000000     
    552     (1,552)               0.0000000     
    553     (1,553)               0.0000000     
    554     (1,554)               0.0000000     
    555     (1,555)               0.0000000     
    556     (1,556)               0.0000000     
    557     (1,557)               0.0000000     
    558     (1,558)               0.0000000     
    559     (1,559)               0.0000000     
    560     (1,560)               0.0000000     
    561     (1,561)               0.0000000     
    562     (1,562)               0.0000000     
    563     (1,563)               0.0000000     
    564     (1,564)               0.0000000     
    565     (1,565)               0.0000000     
    566     (1,566)               0.0000000     
    567     (1,567)               0.0000000     
    568     (1,568)               0.0000000     
    569     (1,569)               0.0000000     
    570     (1,570)               0.0000000     
    571     (1,571)               0.0000000     
    572     (1,572)               0.0000000     
    573     (1,573)               0.0000000     
    574     (1,574)               0.0000000     
    575     (1,575)               0.0000000     
    576     (1,576)               0.0000000     
    577     (1,577)               0.0000000     
    578     (1,578)               0.0000000     
    579     (1,579)               0.0000000     
    580     (1,580)               0.0000000     
    581     (1,581)               0.0000000     
    582     (1,582)               0.0000000     
    583     (1,583)               0.0000000     
    584     (1,584)               0.0000000     
    585     (1,585)               0.0000000     
    586     (1,586)               0.0000000     
    587     (1,587)               0.0000000     
    588     (1,588)               0.0000000     
    589     (1,589)               0.0000000     
    590     (1,590)               0.0000000     
    591     (1,591)               0.0000000     
    592     (1,592)               0.0000000     
    593     (1,593)               0.0000000     
    594     (1,594)               0.0000000     
    595     (1,595)               0.0000000     
    596     (1,596)               0.0000000     
    597     (1,597)               0.0000000     
    598     (1,598)               0.0000000     
    599     (1,599)               0.0000000     
    600     (1,600)               0.0000000     
    601     (1,601)               0.0000000     
    602     (1,602)               0.0000000     
    603     (1,603)               0.0000000     
    604     (1,604)               0.0000000     
    605     (1,605)               0.0000000     
    606     (1,606)               0.0000000     
    607     (1,607)               0.0000000     
    608     (1,608)               0.0000000     
    609     (1,609)               0.0000000     
    610     (1,610)               0.0000000     
    611     (1,611)               0.0000000     
    612     (1,612)               0.0000000     
    613     (1,613)               0.0000000     
    614     (1,614)               0.0000000     
    615     (1,615)               0.0000000     
    616     (1,616)               0.0000000     
    617     (1,617)               0.0000000     
    618     (1,618)               0.0000000     
    619     (1,619)               0.0000000     
    620     (1,620)               0.0000000     
    621     (1,621)               0.0000000     
    622     (1,622)               0.0000000     
    623     (1,623)               0.0000000     
    624     (1,624)               0.0000000     
    625     (1,625)               0.0000000     
    626     (1,626)               0.0000000     
    627     (1,627)               0.0000000     
    628     (1,628)               0.0000000     
    629     (1,629)               0.0000000     
    630     (1,630)               0.0000000     
    631     (1,631)               0.0000000     
    632     (1,632)               0.0000000     
    633     (1,633)               0.0000000     
    634     (1,634)               0.0000000     
    635     (1,635)               0.0000000     
    636     (1,636)               0.0000000     
    637     (1,637)               0.0000000     
    638     (1,638)               0.0000000     
    639     (1,639)               0.0000000     
    640     (1,640)               0.0000000     
    641     (1,641)               0.0000000     
    642     (1,642)               0.0000000     
    643     (1,643)               0.0000000     
    644     (1,644)               0.0000000     
    645     (1,645)               0.0000000     
    646     (1,646)               0.0000000     
    647     (1,647)               2.43293829E-02
    648     (1,648)               7.20391533E-03
    649     (1,649)               1.41851370E-02
    650     (1,650)               3.02932806E-03
    651     (1,651)               3.61315541E-03
    652     (1,652)               4.59942049E-02
    653     (1,653)               0.12430446    
    654     (1,654)               4.02666927E-02
    655     (1,655)               2.85349497E-02
    656     (1,656)               9.52472421E-02
    657     (1,657)               1.92597378E-02
    658     (1,658)               0.20640588    
    659     (1,659)               1.22472260E-06
    660     (1,660)               0.0000000     
    661     (1,661)               0.0000000     
    662     (1,662)               0.0000000     
    663     (1,663)               0.0000000     
    664     (1,664)               0.0000000     
    665     (1,665)               0.0000000     
    666     (1,666)               0.0000000     
    667     (1,667)               0.0000000     
    668     (1,668)               0.0000000     
    669     (1,669)               0.0000000     
    670     (1,670)               0.0000000     
    671     (1,671)               0.0000000     
    672     (1,672)               0.0000000     
    673     (1,673)               0.0000000     
    674     (1,674)               0.0000000     
    675     (1,675)               0.0000000     
    676     (1,676)               0.0000000     
    677     (1,677)               0.0000000     
    678     (1,678)               0.0000000     
    679     (1,679)               0.0000000     
    680     (1,680)               0.0000000     
    681     (1,681)               0.0000000     
    682     (1,682)               0.0000000     
    683     (1,683)               0.0000000     
    684     (1,684)               0.0000000     
    685     (1,685)               0.0000000     
    686     (1,686)               0.0000000     
    687     (1,687)               0.0000000     
    688     (1,688)               0.0000000     
    689     (1,689)               0.0000000     
    690     (1,690)               0.0000000     
    691     (1,691)               0.0000000     
    692     (1,692)               0.0000000     
    693     (1,693)               0.0000000     
    694     (1,694)               0.0000000     
    695     (1,695)               0.0000000     
    696     (1,696)               0.0000000     
    697     (1,697)               0.0000000     
    698     (1,698)               0.0000000     
    699     (1,699)               0.0000000     
    700     (1,700)               0.0000000     
    701     (1,701)               0.0000000     
    702     (1,702)               1.89920535E-02
    703     (1,703)               0.0000000     
    704     (1,704)               0.0000000     
    705     (1,705)               3.37467816E-04
    706     (1,706)               0.0000000     
    707     (1,707)               0.0000000     
    708     (1,708)               2.84401426E-02
    709     (1,709)               0.0000000     
    710     (1,710)               8.57792264E-07
    711     (1,711)               2.17166153E-02
    712     (1,712)               8.35395827E-03
    713     (1,713)               0.17462429    
    714     (1,714)               1.20792960E-06
    715     (1,715)               0.0000000     
    716     (1,716)               0.0000000     
    717     (1,717)               0.0000000     
    718     (1,718)               0.0000000     
    719     (1,719)               0.0000000     
    720     (1,720)               0.0000000     
    721     (1,721)               0.0000000     
    722     (1,722)               0.0000000     
    723     (1,723)               0.0000000     
    724     (1,724)               0.0000000     
    725     (1,725)               0.0000000     
    726     (1,726)               0.0000000     
    727     (1,727)               0.0000000     
    728     (1,728)               0.0000000     
    729     (1,729)               0.0000000     
    730     (1,730)               0.0000000     
    731     (1,731)               0.0000000     
    732     (1,732)               0.0000000     
    733     (1,733)               0.0000000     
    734     (1,734)               0.0000000     
    735     (1,735)               0.0000000     
    736     (1,736)               0.0000000     
    737     (1,737)               0.0000000     
    738     (1,738)               0.0000000     
    739     (1,739)               0.0000000     
    740     (1,740)               0.0000000     
    741     (1,741)               0.0000000     
    742     (1,742)               0.0000000     
    743     (1,743)               0.0000000     
    744     (1,744)               0.0000000     
    745     (1,745)               0.0000000     
    746     (1,746)               0.0000000     
    747     (1,747)               0.0000000     
    748     (1,748)               0.0000000     
    749     (1,749)               0.0000000     
    750     (1,750)               0.0000000     
    751     (1,751)               0.0000000     
    752     (1,752)               0.0000000     
    753     (1,753)               0.0000000     
    754     (1,754)               0.0000000     
    755     (1,755)               0.0000000     
    756     (1,756)               1.29192288E-04
    757     (1,757)               0.0000000     
    758     (1,758)               0.0000000     
    759     (1,759)               7.65817545E-03
    760     (1,760)               0.0000000     
    761     (1,761)               8.38976309E-07
    762     (1,762)               0.0000000     
    763     (1,763)               0.0000000     
    764     (1,764)               0.0000000     
    765     (1,765)               0.0000000     
    766     (1,766)               0.0000000     
    767     (1,767)               0.0000000     
    768     (1,768)               0.0000000     
    769     (1,769)               0.0000000     
    770     (1,770)               0.0000000     
    771     (1,771)               0.0000000     
    772     (1,772)               0.0000000     
    773     (1,773)               0.0000000     
    774     (1,774)               0.0000000     
    775     (1,775)               0.0000000     
    776     (1,776)               0.0000000     
    777     (1,777)               0.0000000     
    778     (1,778)               0.0000000     
    779     (1,779)               0.0000000     
    780     (1,780)               0.0000000     
    781     (1,781)               0.0000000     
    782     (1,782)               0.0000000     
    783     (1,783)               0.0000000     
    784     (1,784)               0.0000000     
    785     (1,785)               0.0000000     
    786     (1,786)               0.0000000     
    787     (1,787)               0.0000000     
    788     (1,788)               0.0000000     
    789     (1,789)               0.0000000     
    790     (1,790)               0.0000000     
    791     (1,791)               0.0000000     
    792     (1,792)               0.0000000     
    793     (1,793)               0.0000000     
    794     (1,794)               0.0000000     
    795     (1,795)               0.0000000     
    796     (1,796)               0.0000000     
    797     (1,797)               0.0000000     
    798     (1,798)               0.0000000     
    799     (1,799)               0.0000000     
    800     (1,800)               0.0000000     
    801     (1,801)               0.0000000     
    802     (1,802)               0.0000000     
    803     (1,803)               0.0000000     
    804     (1,804)               1.99797697E-03
    805     (1,805)               0.0000000     
    806     (1,806)               0.0000000     
    807     (1,807)               0.0000000     
    808     (1,808)               0.0000000     
    809     (1,809)               0.0000000     
    810     (1,810)               0.0000000     
    811     (1,811)               0.0000000     
    812     (1,812)               0.0000000     
    813     (1,813)               0.0000000     
    814     (1,814)               0.0000000     
    815     (1,815)               0.0000000     
    816     (1,816)               0.0000000     
    817     (1,817)               0.0000000     
    818     (1,818)               0.0000000     
    819     (1,819)               0.0000000     
    820     (1,820)               0.0000000     
    821     (1,821)               0.0000000     
    822     (1,822)               0.0000000     
    823     (1,823)               0.0000000     
    824     (1,824)               0.0000000     
    825     (1,825)               0.0000000     
    826     (1,826)               0.0000000     
    827     (1,827)               0.0000000     
    828     (1,828)               0.0000000     
    829     (1,829)               0.0000000     
    830     (1,830)               0.0000000     
    831     (1,831)               0.0000000     
    832     (1,832)               0.0000000     
    833     (1,833)               0.0000000     
    834     (1,834)               0.0000000     
    835     (1,835)               0.0000000     
    836     (1,836)               0.0000000     
    837     (1,837)               0.0000000     
    838     (1,838)               0.0000000     
    839     (1,839)               0.0000000     
    840     (1,840)               0.0000000     
    841     (1,841)               0.0000000     
    842     (1,842)               0.0000000     
    843     (1,843)               0.0000000     
    844     (1,844)               0.0000000     
    845     (1,845)               0.0000000     
    846     (1,846)               0.0000000     
    847     (1,847)               0.0000000     
    848     (1,848)               0.0000000     
    849     (1,849)               0.0000000     
    850     (1,850)               0.0000000     
    851     (1,851)               0.0000000     
    852     (1,852)               0.0000000     
    853     (1,853)               0.0000000     
    854     (1,854)               0.0000000     
    855     (1,855)               0.0000000     
    856     (1,856)               0.0000000     
    857     (1,857)               0.0000000     
    858     (1,858)               0.0000000     
    859     (1,859)               0.0000000     
    860     (1,860)               0.0000000     
    861     (1,861)               0.0000000     
    862     (1,862)               0.0000000     
    863     (1,863)               0.0000000     
    864     (1,864)               0.0000000     
    865     (1,865)               0.0000000     
    866     (1,866)               0.0000000     
    867     (1,867)               0.0000000     
    868     (1,868)               0.0000000     
    869     (1,869)               0.0000000     
    870     (1,870)               0.0000000     
    871     (1,871)               0.0000000     
    872     (1,872)               0.0000000     
    873     (1,873)               0.0000000     
    874     (1,874)               0.0000000     
    875     (1,875)               0.0000000     
    876     (1,876)               0.0000000     
    877     (1,877)               0.0000000     
    878     (1,878)               0.0000000     
    879     (1,879)               0.0000000     
    880     (1,880)               0.0000000     
    881     (1,881)               0.0000000     
    882     (1,882)               0.0000000     
    883     (1,883)               0.0000000     
    884     (1,884)               0.0000000     
    885     (1,885)               0.0000000     
    886     (1,886)               0.0000000     
    887     (1,887)               0.0000000     
    888     (1,888)               0.0000000     
    889     (1,889)               0.0000000     
    890     (1,890)               0.0000000     
    891     (1,891)               0.0000000     
    892     (1,892)               0.0000000     
    893     (1,893)               0.0000000     
    894     (1,894)               0.0000000     
    895     (1,895)               0.0000000     
    896     (1,896)               0.0000000     
    897     (1,897)               0.0000000     
    898     (1,898)               0.0000000     
    899     (1,899)               0.0000000     
    900     (1,900)               0.0000000     
    901     (1,901)               0.0000000     
    902     (1,902)               0.0000000     
    903     (1,903)               0.0000000     
    904     (1,904)               0.0000000     
    905     (1,905)               0.0000000     
    906     (1,906)               0.0000000     
    907     (1,907)               0.0000000     
    908     (1,908)               0.0000000     
    909     (1,909)               0.0000000     
    910     (1,910)               0.0000000     
    911     (1,911)               0.0000000     
    912     (1,912)               0.0000000     
    913     (1,913)               0.0000000     
    914     (1,914)               0.0000000     
    915     (1,915)               0.0000000     
    916     (1,916)               0.0000000     
    917     (1,917)               0.0000000     
    918     (1,918)               0.0000000     
    919     (1,919)               0.0000000     
    920     (1,920)               0.0000000     
    921     (1,921)               0.0000000     
    922     (1,922)               0.0000000     
    923     (1,923)               0.0000000     
    924     (1,924)               0.0000000     
    925     (1,925)               0.0000000     
    926     (1,926)               0.0000000     
    927     (1,927)               0.0000000     
    928     (1,928)               0.0000000     
    929     (1,929)               0.0000000     
    930     (1,930)               0.0000000     
    931     (1,931)               0.0000000     
    932     (1,932)               0.0000000     
    933     (1,933)               0.0000000     
    934     (1,934)               0.0000000     
    935     (1,935)               0.0000000     
    936     (1,936)               0.0000000     
    937     (1,937)               0.0000000     
    938     (1,938)               0.0000000     
    939     (1,939)               0.0000000     
    940     (1,940)               0.0000000     
    941     (1,941)               0.0000000     
    942     (1,942)               0.0000000     
    943     (1,943)               0.0000000     
    944     (1,944)               0.0000000     
    945     (1,945)               0.0000000     
    946     (1,946)               0.0000000     
    947     (1,947)               0.0000000     
    948     (1,948)               0.0000000     
    949     (1,949)               0.0000000     
    950     (1,950)               0.0000000     
    951     (1,951)               0.0000000     
    952     (1,952)               0.0000000     
    953     (1,953)               0.0000000     
    954     (1,954)               0.0000000     
    955     (1,955)               0.0000000     
    956     (1,956)               0.0000000     
    957     (1,957)               0.0000000     
    958     (1,958)               0.0000000     
    959     (1,959)               0.0000000     
    960     (1,960)               0.0000000     
    961     (1,961)               0.0000000     
    962     (1,962)               0.0000000     
    963     (1,963)               0.0000000     
    964     (1,964)               0.0000000     
    965     (1,965)               0.0000000     
    966     (1,966)               0.0000000     
    967     (1,967)               0.0000000     
    968     (1,968)               0.0000000     
    969     (1,969)               0.0000000     
    970     (1,970)               0.0000000     
    971     (1,971)               0.0000000     
    972     (1,972)               0.0000000     
    973     (1,973)               0.0000000     
    974     (1,974)               0.0000000     
    975     (1,975)               0.0000000     
    976     (1,976)               0.0000000     
    977     (1,977)               0.0000000     
    978     (1,978)               0.0000000     
    979     (1,979)               0.0000000     
    980     (1,980)               0.0000000     
    981     (1,981)               0.0000000     
    982     (1,982)               0.0000000     
    983     (1,983)               0.0000000     
    984     (1,984)               0.0000000     
    985     (1,985)               0.0000000     
    986     (1,986)               0.0000000     
    987     (1,987)               0.0000000     
    988     (1,988)               0.0000000     
    989     (1,989)               0.0000000     
    990     (1,990)               0.0000000     
    991     (1,991)               0.0000000     
    992     (1,992)               0.0000000     
    993     (1,993)               0.0000000     
    994     (1,994)               0.0000000     
    995     (1,995)               0.0000000     
    996     (1,996)               0.0000000     
    997     (1,997)               0.0000000     
    998     (1,998)               0.0000000     
    999     (1,999)               0.0000000     
    1000    (1,1000)              0.0000000     
    1001    (1,1001)              0.0000000     
    1002    (1,1002)              0.0000000     
    1003    (1,1003)              0.0000000     
    1004    (1,1004)              0.0000000     
    1005    (1,1005)              0.0000000     
    1006    (1,1006)              0.0000000     
    1007    (1,1007)              0.0000000     
    1008    (1,1008)              0.0000000     
    1009    (1,1009)              0.0000000     
    1010    (1,1010)              0.0000000     
    1011    (1,1011)              0.0000000     
    1012    (1,1012)              0.0000000     
    1013    (1,1013)              0.0000000     
    1014    (1,1014)              0.0000000     
    1015    (1,1015)              0.0000000     
    1016    (1,1016)              0.0000000     
    1017    (1,1017)              0.0000000     
    1018    (1,1018)              0.0000000     
    1019    (1,1019)              0.0000000     
    1020    (1,1020)              0.0000000     
    1021    (1,1021)              0.0000000     
    1022    (1,1022)              0.0000000     
    1023    (1,1023)              0.0000000     
    1024    (1,1024)              0.0000000     
    1025    (1,1025)              0.0000000     
    1026    (1,1026)              0.0000000     
    1027    (1,1027)              0.0000000     
    1028    (1,1028)              0.0000000     
    1029    (1,1029)              0.0000000     
    1030    (1,1030)              0.0000000     
    1031    (1,1031)              0.0000000     
    1032    (1,1032)              0.0000000     
    1033    (1,1033)              0.0000000     
    1034    (1,1034)              0.0000000     
    1035    (1,1035)              0.0000000     
    1036    (1,1036)              0.0000000     
    1037    (1,1037)              0.0000000     
    1038    (1,1038)              0.0000000     
    1039    (1,1039)              0.0000000     
    1040    (1,1040)              0.0000000     
    1041    (1,1041)              0.0000000     
    1042    (1,1042)              0.0000000     
    1043    (1,1043)              0.0000000     
    1044    (1,1044)              0.0000000     
    1045    (1,1045)              0.0000000     
    1046    (1,1046)              0.0000000     
    1047    (1,1047)              0.0000000     
    1048    (1,1048)              0.0000000     
    1049    (1,1049)              0.0000000     
    1050    (1,1050)              0.0000000     
    1051    (1,1051)              0.0000000     
    1052    (1,1052)              0.0000000     
    1053    (1,1053)              0.0000000     
    1054    (1,1054)              0.0000000     
    1055    (1,1055)              0.0000000     
    1056    (1,1056)              0.0000000     
    1057    (1,1057)              0.0000000     
    1058    (1,1058)              0.0000000     
    1059    (1,1059)              0.0000000     
    1060    (1,1060)              0.0000000     
    1061    (1,1061)              0.0000000     
    1062    (1,1062)              0.0000000     
    1063    (1,1063)              0.0000000     
    1064    (1,1064)              0.0000000     
    1065    (1,1065)              0.0000000     
    1066    (1,1066)              0.0000000     
    1067    (1,1067)              0.0000000     
    1068    (1,1068)              0.0000000     
    1069    (1,1069)              0.0000000     
    1070    (1,1070)              0.0000000     
    1071    (1,1071)              0.0000000     
    1072    (1,1072)              0.0000000     
    1073    (1,1073)              0.0000000     
    1074    (1,1074)              2.05055935E-04
    1075    (1,1075)              0.0000000     
    1076    (1,1076)              0.0000000     
    1077    (1,1077)              0.0000000     
    1078    (1,1078)              0.0000000     
    1079    (1,1079)              0.0000000     
    1080    (1,1080)              0.0000000     
    1081    (1,1081)              0.0000000     
    1082    (1,1082)              0.0000000     
    1083    (1,1083)              0.0000000     
    1084    (1,1084)              0.0000000     
    1085    (1,1085)              0.0000000     
    1086    (1,1086)              0.0000000     
    1087    (1,1087)              4.59105612E-05
    1088    (1,1088)              0.0000000     
    1089    (1,1089)              0.0000000     
    1090    (1,1090)              0.0000000     
    1091    (1,1091)              3.15344665E-05
    1092    (1,1092)              0.0000000     
    1093    (1,1093)              0.0000000     
    1094    (1,1094)              0.0000000     
    1095    (1,1095)              0.0000000     
    1096    (1,1096)              0.0000000     
    1097    (1,1097)              0.0000000     
    1098    (1,1098)              0.0000000     
    1099    (1,1099)              0.0000000     
    1100    (1,1100)              0.0000000     
    1101    (1,1101)              0.0000000     
    1102    (1,1102)              0.0000000     
    1103    (1,1103)              0.0000000     
    1104    (1,1104)              0.0000000     
    1105    (1,1105)              0.0000000     
    1106    (1,1106)              0.0000000     
    1107    (1,1107)              0.0000000     
    1108    (1,1108)              0.0000000     
    1109    (1,1109)              0.0000000     
    1110    (1,1110)              0.0000000     
    1111    (1,1111)              0.0000000     
    1112    (1,1112)              0.0000000     
    1113    (1,1113)              0.0000000     
    1114    (1,1114)              0.0000000     
    1115    (1,1115)              0.0000000     
    1116    (1,1116)              0.0000000     
    1117    (1,1117)              0.0000000     
    1118    (1,1118)              0.0000000     
    1119    (1,1119)              0.0000000     
    1120    (1,1120)              0.0000000     
    1121    (1,1121)              0.0000000     
    1122    (1,1122)              0.0000000     
    1123    (1,1123)              0.0000000     
    1124    (1,1124)              0.0000000     
    1125    (1,1125)              0.0000000     
    1126    (1,1126)              0.0000000     
    1127    (1,1127)              0.0000000     
    1128    (1,1128)              0.0000000     
    1129    (1,1129)              0.0000000     
    1130    (1,1130)              0.0000000     
    1131    (1,1131)              0.0000000     
    1132    (1,1132)              0.0000000     
    1133    (1,1133)              0.0000000     
    1134    (1,1134)              0.0000000     
    1135    (1,1135)              0.0000000     
    1136    (1,1136)              0.0000000     
    1137    (1,1137)              0.0000000     
    1138    (1,1138)              0.0000000     
    1139    (1,1139)              0.0000000     
    1140    (1,1140)              0.0000000     
    1141    (1,1141)              0.0000000     
    1142    (1,1142)              0.0000000     
    1143    (1,1143)              0.0000000     
    1144    (1,1144)              2.20047799E-05
    1145    (1,1145)              4.44146223E-04
    1146    (1,1146)              0.0000000     
    1147    (1,1147)              0.0000000     
    1148    (1,1148)              0.0000000     
    1149    (1,1149)              0.0000000     
    1150    (1,1150)              0.0000000     
    1151    (1,1151)              1.32875954E-04
    1152    (1,1152)              0.0000000     
    1153    (1,1153)              2.18180563E-05
    1154    (1,1154)              1.13946090E-05
    1155    (1,1155)              0.0000000     
    1156    (1,1156)              1.81220176E-04
    1157    (1,1157)              0.0000000     
    1158    (1,1158)              0.0000000     
    1159    (1,1159)              0.0000000     
    1160    (1,1160)              0.0000000     
    1161    (1,1161)              0.0000000     
    1162    (1,1162)              0.0000000     
    1163    (1,1163)              0.0000000     
    1164    (1,1164)              0.0000000     
    1165    (1,1165)              0.0000000     
    1166    (1,1166)              0.0000000     
    1167    (1,1167)              0.0000000     
    1168    (1,1168)              0.0000000     
    1169    (1,1169)              0.0000000     
    1170    (1,1170)              0.0000000     
    1171    (1,1171)              0.0000000     
    1172    (1,1172)              3.21495369E-04
    1173    (1,1173)              0.0000000     
    1174    (1,1174)              0.0000000     
    1175    (1,1175)              0.0000000     
    1176    (1,1176)              0.0000000     
    1177    (1,1177)              0.0000000     
    1178    (1,1178)              0.0000000     
    1179    (1,1179)              0.0000000     
    1180    (1,1180)              0.0000000     
    1181    (1,1181)              0.0000000     
    1182    (1,1182)              0.0000000     
    1183    (1,1183)              0.0000000     
    1184    (1,1184)              0.0000000     
    1185    (1,1185)              0.0000000     
    1186    (1,1186)              0.0000000     
    1187    (1,1187)              0.0000000     
    1188    (1,1188)              0.0000000     
    1189    (1,1189)              0.0000000     
    1190    (1,1190)              0.0000000     
    1191    (1,1191)              0.0000000     
    1192    (1,1192)              0.0000000     
    1193    (1,1193)              0.0000000     
    1194    (1,1194)              0.0000000     
    1195    (1,1195)              0.0000000     
    1196    (1,1196)              0.0000000     
    1197    (1,1197)              0.0000000     
    1198    (1,1198)              0.0000000     
    1199    (1,1199)              0.0000000     
    1200    (1,1200)              0.0000000     
    1201    (1,1201)              0.0000000     
    1202    (1,1202)              0.0000000     
    1203    (1,1203)              0.0000000     
    1204    (1,1204)              0.0000000     
    1205    (1,1205)              0.0000000     
    1206    (1,1206)              0.0000000     
    1207    (1,1207)              0.0000000     
    1208    (1,1208)              0.0000000     
    1209    (1,1209)              3.21405184E-03
    1210    (1,1210)              0.0000000     
    1211    (1,1211)              0.0000000     
    1212    (1,1212)              0.0000000     
    1213    (1,1213)              0.0000000     
    1214    (1,1214)              0.0000000     
    1215    (1,1215)              0.0000000     
    1216    (1,1216)              0.0000000     
    1217    (1,1217)              0.0000000     
    1218    (1,1218)              1.22347270E-03
    1219    (1,1219)              0.0000000     
    1220    (1,1220)              0.0000000     
    1221    (1,1221)              0.0000000     
    1222    (1,1222)              0.0000000     
    1223    (1,1223)              0.0000000     
    1224    (1,1224)              0.0000000     
    1225    (1,1225)              0.0000000     
    1226    (1,1226)              1.03125821E-03
    1227    (1,1227)              0.0000000     
    1228    (1,1228)              0.0000000     
    1229    (1,1229)              0.0000000     
    1230    (1,1230)              0.0000000     
    1231    (1,1231)              0.0000000     
    1232    (1,1232)              0.0000000     
    1233    (1,1233)              0.0000000     
    1234    (1,1234)              0.0000000     
    1235    (1,1235)              0.0000000     
    1236    (1,1236)              0.0000000     
    1237    (1,1237)              0.0000000     
    1238    (1,1238)              0.0000000     
    1239    (1,1239)              0.0000000     
    1240    (1,1240)              0.0000000     
    1241    (1,1241)              0.0000000     
    1242    (1,1242)              0.0000000     
    1243    (1,1243)              0.0000000     
    1244    (1,1244)              1.73554130E-03
    1245    (1,1245)              0.0000000     
    1246    (1,1246)              0.0000000     
    1247    (1,1247)              0.0000000     
    1248    (1,1248)              0.0000000     
    1249    (1,1249)              0.0000000     
    1250    (1,1250)              0.0000000     
    1251    (1,1251)              0.0000000     
    1252    (1,1252)              0.0000000     
    1253    (1,1253)              3.19028252E-02
    1254    (1,1254)              1.02454558E-03
    1255    (1,1255)              1.32275793E-02
    1256    (1,1256)              0.0000000     
    1257    (1,1257)              0.0000000     
    1258    (1,1258)              0.0000000     
    1259    (1,1259)              0.0000000     
    1260    (1,1260)              1.99364204E-03
    1261    (1,1261)              0.0000000     
    1262    (1,1262)              0.0000000     
    1263    (1,1263)              0.0000000     
    1264    (1,1264)              0.0000000     
    1265    (1,1265)              0.0000000     
    1266    (1,1266)              0.0000000     
    1267    (1,1267)              1.14220209E-02
    1268    (1,1268)              2.24929222E-03
    1269    (1,1269)              0.0000000     
    1270    (1,1270)              2.76316343E-03
    1271    (1,1271)              1.16977716E-03
    1272    (1,1272)              1.50661688E-03
    1273    (1,1273)              2.87940309E-02
    1274    (1,1274)              0.0000000     
    1275    (1,1275)              1.36161022E-03
    1276    (1,1276)              1.07451854E-03
    1277    (1,1277)              3.97264063E-03
    1278    (1,1278)              0.0000000     
    1279    (1,1279)              1.20811798E-02
    1280    (1,1280)              0.0000000     
    1281    (1,1281)              0.0000000     
    1282    (1,1282)              0.0000000     
    1283    (1,1283)              0.0000000     
    1284    (1,1284)              0.0000000     
    1285    (1,1285)              0.0000000     
    1286    (1,1286)              0.0000000     
    1287    (1,1287)              0.0000000     
    1288    (1,1288)              0.0000000     
    1289    (1,1289)              0.0000000     
    1290    (1,1290)              0.0000000     
    1291    (1,1291)              0.0000000     
    1292    (1,1292)              0.0000000     
    1293    (1,1293)              0.0000000     
    1294    (1,1294)              0.0000000     
    1295    (1,1295)              0.0000000     
    1296    (1,1296)              0.0000000     
    1297    (1,1297)              0.0000000     
    1298    (1,1298)              0.0000000     
    1299    (1,1299)              0.0000000     
    1300    (1,1300)              0.0000000     
    1301    (1,1301)              0.0000000     
    1302    (1,1302)              0.0000000     
    1303    (1,1303)              0.0000000     
    1304    (1,1304)              0.0000000     
    1305    (1,1305)              0.0000000     
    1306    (1,1306)              0.0000000     
    1307    (1,1307)              0.0000000     
    1308    (1,1308)              0.0000000     
    1309    (1,1309)              0.0000000     
    1310    (1,1310)              0.0000000     
    1311    (1,1311)              0.0000000     
    1312    (1,1312)              0.0000000     
    1313    (1,1313)              0.0000000     
    1314    (1,1314)              0.0000000     
    1315    (1,1315)              0.0000000     
    1316    (1,1316)              0.0000000     
    1317    (1,1317)              0.0000000     
    1318    (1,1318)              0.0000000     
    1319    (1,1319)              0.0000000     
    1320    (1,1320)              0.0000000     
    1321    (1,1321)              0.0000000     
    1322    (1,1322)              0.0000000     
    1323    (1,1323)              0.0000000     
    1324    (1,1324)              0.0000000     
    1325    (1,1325)              0.0000000     
    1326    (1,1326)              0.0000000     
    1327    (1,1327)              0.0000000     
    1328    (1,1328)              0.0000000     
    1329    (1,1329)              0.0000000     
    1330    (1,1330)              0.0000000     
    1331    (1,1331)              0.0000000     
    1332    (1,1332)              0.0000000     
    1333    (1,1333)              5.16540387E-03
    1334    (1,1334)              4.43179074E-02
    1335    (1,1335)              0.0000000     
    1336    (1,1336)              0.0000000     
    1337    (1,1337)              0.0000000     
    1338    (1,1338)              0.0000000     
    1339    (1,1339)              0.0000000     
    1340    (1,1340)              0.0000000     
    1341    (1,1341)              0.0000000     
    1342    (1,1342)              5.33547588E-02
    1343    (1,1343)              1.79528097E-03
    1344    (1,1344)              0.0000000     
    1345    (1,1345)              0.0000000     
    1346    (1,1346)              3.41200894E-03
    1347    (1,1347)              0.0000000     
    1348    (1,1348)              0.0000000     
    1349    (1,1349)              0.0000000     
    1350    (1,1350)              0.0000000     
    1351    (1,1351)              3.12140226E-02
    1352    (1,1352)              2.11609048E-02
    1353    (1,1353)              0.0000000     
    1354    (1,1354)              0.0000000     
    1355    (1,1355)              0.0000000     
    1356    (1,1356)              0.0000000     
    1357    (1,1357)              0.0000000     
    1358    (1,1358)              0.0000000     
    1359    (1,1359)              0.0000000     
    1360    (1,1360)              0.0000000     
    1361    (1,1361)              0.0000000     
    1362    (1,1362)              0.0000000     
    1363    (1,1363)              0.0000000     
    1364    (1,1364)              0.0000000     
    1365    (1,1365)              3.51161398E-02
    1366    (1,1366)              0.0000000     
    1367    (1,1367)              0.0000000     
    1368    (1,1368)              0.0000000     
    1369    (1,1369)              0.0000000     
    1370    (1,1370)              2.84740738E-02
    1371    (1,1371)              0.0000000     
    1372    (1,1372)              0.0000000     
    1373    (1,1373)              0.0000000     
    1374    (1,1374)              0.0000000     
    1375    (1,1375)              0.0000000     
    1376    (1,1376)              6.69877786E-03
    1377    (1,1377)              6.98816510E-02
    1378    (1,1378)              0.0000000     
    1379    (1,1379)              0.0000000     
    1380    (1,1380)              0.0000000     
    1381    (1,1381)              0.0000000     
    1382    (1,1382)              0.0000000     
    1383    (1,1383)              0.0000000     
    1384    (1,1384)              0.0000000     
    1385    (1,1385)              0.0000000     
    1386    (1,1386)              0.0000000     
    1387    (1,1387)              0.0000000     
    1388    (1,1388)              0.0000000     
    1389    (1,1389)              0.0000000     
    1390    (1,1390)              0.0000000     
    1391    (1,1391)              0.0000000     
    1392    (1,1392)              3.26725505E-03
    1393    (1,1393)              3.38115838E-02
    1394    (1,1394)              0.0000000     
    1395    (1,1395)              0.0000000     
    1396    (1,1396)              7.32304623E-03
    1397    (1,1397)              0.0000000     
    1398    (1,1398)              3.78143238E-03
    1399    (1,1399)              8.51450615E-02
    1400    (1,1400)              1.15147092E-02
    1401    (1,1401)              5.48729577E-03
    1402    (1,1402)              3.96313724E-02
    1403    (1,1403)              4.64587375E-02
    1404    (1,1404)              6.96319567E-02
    1405    (1,1405)              0.0000000     
    1406    (1,1406)              0.0000000     
    1407    (1,1407)              0.0000000     
    1408    (1,1408)              0.0000000     
    1409    (1,1409)              4.07934864E-02
    1410    (1,1410)              8.01514788E-03
    1411    (1,1411)              8.68322288E-02
    1412    (1,1412)              0.0000000     
    1413    (1,1413)              2.35826021E-02
    1414    (1,1414)              1.62842050E-02
    1415    (1,1415)              0.0000000     
    1416    (1,1416)              0.0000000     
    1417    (1,1417)              0.0000000     
    1418    (1,1418)              0.0000000     
    1419    (1,1419)              0.0000000     
    1420    (1,1420)              4.13617857E-03
    1421    (1,1421)              8.02677900E-03
    1422    (1,1422)              0.0000000     
    1423    (1,1423)              0.0000000     
    1424    (1,1424)              1.26147064E-02
    1425    (1,1425)              1.15066586E-02
    1426    (1,1426)              4.43984682E-03
    1427    (1,1427)              0.0000000     
    1428    (1,1428)              3.25042417E-02
    1429    (1,1429)              0.0000000     
    1430    (1,1430)              0.14814904    
    1431    (1,1431)              5.49644760E-03
    1432    (1,1432)              6.59308955E-02
    1433    (1,1433)              0.0000000     
    1434    (1,1434)              0.0000000     
    1435    (1,1435)              0.0000000     
    1436    (1,1436)              0.0000000     
    1437    (1,1437)              0.0000000     
    1438    (1,1438)              0.0000000     
    1439    (1,1439)              0.0000000     
    1440    (1,1440)              0.0000000     
    1441    (1,1441)              0.0000000     
    1442    (1,1442)              6.72592452E-02
    1443    (1,1443)              0.0000000     
    1444    (1,1444)              0.0000000     
    1445    (1,1445)              3.85660607E-02
    1446    (1,1446)              0.0000000     
    1447    (1,1447)              0.0000000     
    1448    (1,1448)              0.0000000     
    1449    (1,1449)              8.99501931E-02
    1450    (1,1450)              2.57223172E-02
    1451    (1,1451)              1.63432366E-02
    1452    (1,1452)              6.67422568E-02
    1453    (1,1453)              0.0000000     
    1454    (1,1454)              0.0000000     
    1455    (1,1455)              0.0000000     
[...]
    2688    (1,2688)              0.50905203    
    2689    (1,2689)              0.35069054    
    2690    (1,2690)              0.35678032    
    2691    (1,2691)              0.38230867    
    2692    (1,2692)              0.38939386    
    2693    (1,2693)              0.15269819    
    2694    (1,2694)              0.35322745    
    2695    (1,2695)              0.52502790    
    2696    (1,2696)              0.24934232    
    2697    (1,2697)              0.50563156    
    2698    (1,2698)              0.43868461    
    2699    (1,2699)              0.35804140    
    2700    (1,2700)              0.25861046    
    2701    (1,2701)              0.40206291    
    2702    (1,2702)              0.38063322    
    2703    (1,2703)              0.33859262    
    2704    (1,2704)              0.47242295    
    2705    (1,2705)              0.41573666    
    2706    (1,2706)              0.43904699    
    2707    (1,2707)              0.34736822    
    2708    (1,2708)              0.43296760    
    2709    (1,2709)              0.39134412    
    2710    (1,2710)              0.43243224    
    2711    (1,2711)              0.42787487    
    2712    (1,2712)              0.46847648    
    2713    (1,2713)              0.47866925    
    2714    (1,2714)              0.43141622    
    2715    (1,2715)              0.48647905    
    2716    (1,2716)              0.55242015    
    2717    (1,2717)              0.46261469    
    2718    (1,2718)              0.72430717    
    2719    (1,2719)              0.37941945    
    2720    (1,2720)              0.28982186    
    2721    (1,2721)              0.30700705    
    2722    (1,2722)              0.42442456    
    2723    (1,2723)              0.41428157    
    2724    (1,2724)              0.38089207    
    2725    (1,2725)              0.47792531    
    2726    (1,2726)              0.46814116    
    2727    (1,2727)              0.49888344    
    2728    (1,2728)              0.44752367    
    2729    (1,2729)              0.41732251    
    2730    (1,2730)              0.45560738    
    2731    (1,2731)              0.41418507    
    2732    (1,2732)              0.49550804    
    2733    (1,2733)              0.54259999    
    2734    (1,2734)              0.65678091    
    2735    (1,2735)              0.37780101    
    2736    (1,2736)              0.52059079    
    2737    (1,2737)              0.38358077    
    2738    (1,2738)              0.50048412    
    2739    (1,2739)              0.40467230    
    2740    (1,2740)              0.42347998    
    2741    (1,2741)              0.37702685    
    2742    (1,2742)              0.30474588    
    2743    (1,2743)              0.32503374    
    2744    (1,2744)              0.49877240    
    2745    (1,2745)              0.28892913    
    2746    (1,2746)              0.32164271    
    2747    (1,2747)              0.30906877    
    2748    (1,2748)              0.18987644    
    2749    (1,2749)              0.38204737    
    2750    (1,2750)              0.48895911    
    2751    (1,2751)              0.40712982    
    2752    (1,2752)              0.39941096    
    2753    (1,2753)              0.46919293    
    2754    (1,2754)              0.43228152    
    2755    (1,2755)              0.36058994    
    2756    (1,2756)              0.37731893    
    2757    (1,2757)              0.47172293    
    2758    (1,2758)              0.47699168    
    2759    (1,2759)              0.37098756    
    2760    (1,2760)              0.33061553    
    2761    (1,2761)              0.41371898    
    2762    (1,2762)              0.33901619    
    2763    (1,2763)              0.35807369    
    2764    (1,2764)              0.40166670    
    2765    (1,2765)              0.41736344    
    2766    (1,2766)              0.51177860    
    2767    (1,2767)              0.47774984    
    2768    (1,2768)              0.35332028    
    2769    (1,2769)              0.23041989    
    2770    (1,2770)              0.23061922    
    2771    (1,2771)              0.49844474    
    2772    (1,2772)              3.98617979E-02
    2773    (1,2773)              5.30247495E-02
    2774    (1,2774)              5.47239752E-02
    2775    (1,2775)              0.33183541    
    2776    (1,2776)              0.27850157    
    2777    (1,2777)              0.31547217    
    2778    (1,2778)              0.43521160    
    2779    (1,2779)              0.34695751    
    2780    (1,2780)              0.31404892    
    2781    (1,2781)              0.29298334    
    2782    (1,2782)              0.31375983    
    2783    (1,2783)              0.35340444    
    2784    (1,2784)              0.32576254    
    2785    (1,2785)              0.38348252    
    2786    (1,2786)              0.40206920    
    2787    (1,2787)              0.50346794    
    2788    (1,2788)              0.28435898    
    2789    (1,2789)              0.30874526    
    2790    (1,2790)              0.36253260    
    2791    (1,2791)              0.35193046    
    2792    (1,2792)              0.39063452    
    2793    (1,2793)              0.40471657    
    2794    (1,2794)              0.45907037    
    2795    (1,2795)              0.34075451    
    2796    (1,2796)              0.53218040    
    2797    (1,2797)              0.38787388    
    2798    (1,2798)              0.41458913    
    2799    (1,2799)              0.42371539    
    2800    (1,2800)              0.34450618    
    2801    (1,2801)              0.43632306    
    2802    (1,2802)              0.39591977    
    2803    (1,2803)              0.45506359    
    2804    (1,2804)              0.43714258    
    2805    (1,2805)              0.36997263    
    2806    (1,2806)              0.38479642    
    2807    (1,2807)              0.53252238    
    2808    (1,2808)              0.44817446    
    2809    (1,2809)              0.51652569    
    2810    (1,2810)              0.41742867    
    2811    (1,2811)              0.50268711    
    2812    (1,2812)              0.37711302    
    2813    (1,2813)              0.41416841    
    2814    (1,2814)              0.36190515    
    2815    (1,2815)              0.40409272    
    2816    (1,2816)              0.44479232    
    2817    (1,2817)              0.44986483    
    2818    (1,2818)              0.21086570    
    2819    (1,2819)              0.51863751    
    2820    (1,2820)              0.47421318    
    2821    (1,2821)              0.50145675    
    2822    (1,2822)              0.44929072    
    2823    (1,2823)              0.56359068    
    2824    (1,2824)              0.50256664    
    2825    (1,2825)              0.24207200    
    2826    (1,2826)              0.37449166    
    2827    (1,2827)              0.32911077    
    2828    (1,2828)              0.54744346    
    2829    (1,2829)              0.45288605    
    2830    (1,2830)              0.57526758    
    2831    (1,2831)              0.53922062    
    2832    (1,2832)              0.44140597    
    2833    (1,2833)              0.47838112    
    2834    (1,2834)              0.41735417    
    2835    (1,2835)              0.39637102    
    2836    (1,2836)              0.33888722    
    2837    (1,2837)              0.33313230    
    2838    (1,2838)              0.38564753    
    2839    (1,2839)              0.39101757    
    2840    (1,2840)              0.37665701    
    2841    (1,2841)              0.31858957    
    2842    (1,2842)              0.40459808    
    2843    (1,2843)              0.43938132    
    2844    (1,2844)              0.31562719    
    2845    (1,2845)              0.38539358    
    2846    (1,2846)              0.35551215    
    2847    (1,2847)              0.17867537    
    2848    (1,2848)              0.42898935    
    2849    (1,2849)              0.19884757    
    2850    (1,2850)              0.18976784    
    2851    (1,2851)              5.58528136E-02
    2852    (1,2852)              6.74792185E-02
    2853    (1,2853)              0.47613719    
    2854    (1,2854)              0.33394943    
    2855    (1,2855)              0.28074362    
    2856    (1,2856)              0.36272962    
    2857    (1,2857)              0.38502103    
    2858    (1,2858)              0.42649606    
    2859    (1,2859)              0.51673055    
    2860    (1,2860)              0.45455288    
    2861    (1,2861)              0.36977279    
    2862    (1,2862)              0.33149957    
    2863    (1,2863)              0.37266070    
    2864    (1,2864)              0.38528083    
    2865    (1,2865)              0.40418282    
    2866    (1,2866)              0.44590643    
    2867    (1,2867)              0.38275980    
    2868    (1,2868)              0.39179246    
    2869    (1,2869)              0.35179846    
    2870    (1,2870)              0.49748818    
    2871    (1,2871)              0.33986314    
    2872    (1,2872)              0.35040843    
    2873    (1,2873)              0.34168336    
    2874    (1,2874)              0.28278032    
    2875    (1,2875)              0.49065174    
    2876    (1,2876)              0.37956990    
    2877    (1,2877)              0.35586699    
    2878    (1,2878)              0.40499306    
    2879    (1,2879)              0.38861893    
    2880    (1,2880)              0.32984650    
    2881    (1,2881)              0.42151940    
    2882    (1,2882)              0.36829903    
    2883    (1,2883)              0.30434657    
    2884    (1,2884)              0.32942539    
    2885    (1,2885)              0.32125247    
    2886    (1,2886)              0.38513691    
    2887    (1,2887)              0.36127432    
    2888    (1,2888)              0.27494581    
    2889    (1,2889)              0.31836896    
    2890    (1,2890)              0.32994210    
    2891    (1,2891)              0.36788650    
    2892    (1,2892)              0.26107927    
    2893    (1,2893)              0.31293630    
    2894    (1,2894)              0.38785199    
    2895    (1,2895)              0.37055198    
    2896    (1,2896)              0.50795876    
    2897    (1,2897)              0.37237434    
    2898    (1,2898)              0.35916063    
    2899    (1,2899)              0.40319087    
    2900    (1,2900)              0.32788575    
    2901    (1,2901)              0.32995732    
    2902    (1,2902)              0.37891947    
    2903    (1,2903)              0.37575551    
    2904    (1,2904)              0.46129154    
    2905    (1,2905)              0.49732250    
    2906    (1,2906)              0.34289537    
    2907    (1,2907)              0.44211690    
    2908    (1,2908)              0.41507582    
    2909    (1,2909)              0.45982449    
    2910    (1,2910)              0.50460608    
    2911    (1,2911)              0.44593931    
    2912    (1,2912)              0.41630822    
    2913    (1,2913)              0.39707519    
    2914    (1,2914)              0.44779928    
    2915    (1,2915)              0.44798035    
    2916    (1,2916)              0.36865938    
    2917    (1,2917)              0.40448087    
    2918    (1,2918)              0.38899763    
    2919    (1,2919)              0.42480749    
    2920    (1,2920)              0.40205034    
    2921    (1,2921)              0.38819714    
    2922    (1,2922)              0.44628355    
    2923    (1,2923)              0.37254201    
    2924    (1,2924)              0.49479652    
    2925    (1,2925)              0.38881057    
    2926    (1,2926)              0.41093042    
    2927    (1,2927)              0.40609521    
    2928    (1,2928)              0.40473551    
    2929    (1,2929)              0.42052708    
    2930    (1,2930)              0.53151696    
    2931    (1,2931)              0.45243927    
    2932    (1,2932)              0.57091303    
    2933    (1,2933)              0.37369976    
    2934    (1,2934)              0.35854171    
    2935    (1,2935)              0.41453611    
    2936    (1,2936)              0.38184072    
    2937    (1,2937)              0.40186980    
    2938    (1,2938)              0.37109305    
    2939    (1,2939)              0.50446251    
    2940    (1,2940)              0.32863812    
    2941    (1,2941)              0.28848128    
    2942    (1,2942)              0.39158038    
    2943    (1,2943)              0.38797920    
    2944    (1,2944)              0.34645677    
    2945    (1,2945)              0.41172785    
    2946    (1,2946)              0.45077846    
    2947    (1,2947)              0.46265516    
    2948    (1,2948)              0.49235510    
    2949    (1,2949)              0.54521642    
    2950    (1,2950)              0.38060375    
    2951    (1,2951)              0.30941500    
    2952    (1,2952)              0.48808852    
    2953    (1,2953)              0.43114500    
    2954    (1,2954)              0.22694808    
    2955    (1,2955)              0.43427128    
    2956    (1,2956)              0.41317556    
    2957    (1,2957)              0.44564650    
    2958    (1,2958)              0.52245021    
    2959    (1,2959)              0.54283918    
    2960    (1,2960)              0.39667325    
    2961    (1,2961)              0.39681791    
    2962    (1,2962)              0.39979351    
    2963    (1,2963)              0.39792228    
    2964    (1,2964)              0.42850764    
    2965    (1,2965)              0.36561694    
    2966    (1,2966)              0.44939381    
    2967    (1,2967)              0.49095524    
    2968    (1,2968)              0.38089857    
    2969    (1,2969)              0.44780239    
    2970    (1,2970)              0.35202319    
    2971    (1,2971)              0.43196764    
    2972    (1,2972)              0.40807237    
    2973    (1,2973)              0.53613176    
    2974    (1,2974)              0.41467655    
    2975    (1,2975)              0.31708474    
    2976    (1,2976)              0.38954372    
    2977    (1,2977)              0.42101099    
    2978    (1,2978)              0.49697000    
    2979    (1,2979)              0.38354539    
    2980    (1,2980)              0.35726639    
    2981    (1,2981)              0.37157879    
    2982    (1,2982)              0.38257857    
    2983    (1,2983)              0.34112975    
    2984    (1,2984)              0.43776944    
    2985    (1,2985)              0.37173469    
    2986    (1,2986)              0.41103516    
    2987    (1,2987)              0.33004303    
    2988    (1,2988)              0.43151596    
    2989    (1,2989)              0.48216948    
    2990    (1,2990)              0.47416942    
    2991    (1,2991)              0.44599072    
    2992    (1,2992)              0.40852193    
    2993    (1,2993)              0.41396052    
    2994    (1,2994)              0.30021743    
    2995    (1,2995)              0.33928106    
    2996    (1,2996)              0.45744053    
    2997    (1,2997)              0.38315648    
    2998    (1,2998)              0.47529800    
    2999    (1,2999)              0.33406109    
    3000    (1,3000)              0.45513585    
    3001    (1,3001)              0.37447699    
    3002    (1,3002)              0.37645158    
    3003    (1,3003)              0.33837415    
    3004    (1,3004)              0.36996596    
    3005    (1,3005)              0.37895359    
    3006    (1,3006)              0.34659992    
    3007    (1,3007)              0.33995689    
    3008    (1,3008)              0.30649353    
    3009    (1,3009)              0.34756885    
    3010    (1,3010)              0.28780140    
    3011    (1,3011)              0.27588561    
    3012    (1,3012)              0.40919775    
    3013    (1,3013)              0.49850771    
    3014    (1,3014)              0.43703871    
    3015    (1,3015)              0.30018323    
    3016    (1,3016)              0.52498325    
    3017    (1,3017)              0.24227739    
    3018    (1,3018)              0.49328895    
    3019    (1,3019)              0.39215777    
    3020    (1,3020)              0.46725187    
    3021    (1,3021)              0.41183543    
    3022    (1,3022)              0.38723189    
    3023    (1,3023)              0.38248425    
    3024    (1,3024)              0.39416984    
    3025    (1,3025)              0.31903002    
    3026    (1,3026)              0.41784915    
    3027    (1,3027)              0.34223077    
    3028    (1,3028)              0.34185829    
    3029    (1,3029)              0.34900078    
    3030    (1,3030)              0.36329285    
    3031    (1,3031)              0.35460670    
    3032    (1,3032)              0.44538327    
    3033    (1,3033)              0.45716809    
    3034    (1,3034)              0.39315287    
    3035    (1,3035)              0.34733651    
    3036    (1,3036)              0.40793489    
    3037    (1,3037)              0.36227325    
    3038    (1,3038)              0.49213905    
    3039    (1,3039)              0.48569357    
    3040    (1,3040)              0.48071087    
    3041    (1,3041)              0.29582948    
    3042    (1,3042)              0.29323841    
    3043    (1,3043)              0.45692062    
    3044    (1,3044)              0.40206564    
 -----------------------------------------------




 HEAD WILL BE SAVED ON UNIT 1018 AT END OF TIME STEP    1, STRESS PERIOD    1


  VOLUME BUDGET FOR ENTIRE MODEL AT END OF TIME STEP    1, STRESS PERIOD   1
  ---------------------------------------------------------------------------------------------------

     CUMULATIVE VOLUME      L**3       RATES FOR THIS TIME STEP      L**3/T          PACKAGE NAME    
     ------------------                 ------------------------                     ----------------

           IN:                                      IN:
           ---                                      ---
                 WEL =           0.0000                   WEL =           0.0000     WELL_PACKAGE                     
                 RCH =         567.1821                   RCH =         567.1821     RCH                              
                 EVT =           0.0000                   EVT =           0.0000     EVT                              
                 CHD =           0.0000                   CHD =           0.0000     CHD                              

            TOTAL IN =         567.1821              TOTAL IN =         567.1821

          OUT:                                     OUT:
          ----                                     ----
                 WEL =          62.6080                   WEL =          62.6080     WELL_PACKAGE                     
                 RCH =           0.0000                   RCH =           0.0000     RCH                              
                 EVT =           5.3681                   EVT =           5.3681     EVT                              
                 CHD =         499.2061                   CHD =         499.2061     CHD                              

           TOTAL OUT =         567.1822             TOTAL OUT =         567.1822

            IN - OUT =      -3.5542E-05              IN - OUT =      -3.5542E-05

 PERCENT DISCREPANCY =          -0.00     PERCENT DISCREPANCY =          -0.00




         TIME SUMMARY AT END OF TIME STEP    1 IN STRESS PERIOD    1
                    SECONDS     MINUTES      HOURS       DAYS        YEARS
                    -----------------------------------------------------------
   TIME STEP LENGTH  1.0000     1.66667E-02 2.77778E-04 1.15741E-05 3.16881E-08
 STRESS PERIOD TIME  1.0000     1.66667E-02 2.77778E-04 1.15741E-05 3.16881E-08
         TOTAL TIME  1.0000     1.66667E-02 2.77778E-04 1.15741E-05 3.16881E-08


end timestep

