                                   MODFLOW 6
                U.S. GEOLOGICAL SURVEY MODULAR HYDROLOGIC MODEL
                            VERSION 6.6.0 12/20/2024

   MODFLOW 6 compiled Dec 31 2024 17:10:16 with Intel(R) Fortran Intel(R) 64
   Compiler Classic for applications running on Intel(R) 64, Version 2021.7.0
                             Build 20220726_000000

This software has been approved for release by the U.S. Geological 
Survey (USGS). Although the software has been subjected to rigorous 
review, the USGS reserves the right to update the software as needed 
pursuant to further analysis and review. No warranty, expressed or 
implied, is made by the USGS or the U.S. Government as to the 
functionality of the software and related material nor shall the 
fact of release constitute any such warranty. Furthermore, the 
software is released on condition that neither the USGS nor the U.S. 
Government shall be held liable for any damages resulting from its 
authorized or unauthorized use. Also refer to the USGS Water 
Resources Software User Rights Notice for complete use, copyright, 
and distribution information.


As a work of the United States Government, this USGS product is 
in the public domain within the United States. You can copy, 
modify, distribute, and perform the work, even for commercial 
purposes, all without asking permission. Additionally, USGS 
waives copyright and related rights in the work worldwide 
through CC0 1.0 Universal Public Domain Dedication 
(https://creativecommons.org/publicdomain/zero/1.0/).

The following GNU Lesser General Public License (LGPL) libraries
are used in this USGS product:

    SPARSKIT version 2.0
      ilut, luson, and qsplit 
      (https://www-users.cse.umn.edu/~saad/software/SPARSKIT/)

    RCM - Reverse Cuthill McKee Ordering
      (https://people.math.sc.edu/Burkardt/f_src/rcm/rcm.html)

    BLAS - Basic Linear Algebra Subprograms Level 1
      (https://people.math.sc.edu/Burkardt/f_src/blas1_d/blas1_d.html)

    SPARSEKIT - Sparse Matrix Utility Package
      amux, dperm, dvperm, rperm, and cperm
      (https://people.sc.fsu.edu/~jburkardt/f77_src/sparsekit/sparsekit.html)

The following BSD-3 License libraries are used in this USGS product:

    Modern Fortran DAG Library
      Copyright (c) 2018, Jacob Williams
      All rights reserved.
      (https://github.com/jacobwilliams/daglib)

MODFLOW 6 compiler options: /O2 /heap-arrays:0 /fpe:0 /traceback /nologo /fpp
/c /module:win64\mod_mf6\ /object:win64\obj_mf6\

System command used to initiate simulation:
mf6

MODFLOW was compiled using uniform precision.

Real Variables
  KIND: 8
  TINY (smallest non-zero value):    2.225074-308
  HUGE (largest value):    1.797693+308
  PRECISION: 15
  SIZE IN BITS: 64

Integer Variables
  KIND: 4
  HUGE (largest value): 2147483647
  SIZE IN BITS: 32

Long Integer Variables
  KIND: 8
  HUGE (largest value): 9223372036854775807
  SIZE IN BITS: 64

Logical Variables
  KIND: 4
  SIZE IN BITS: 32
 

 OPENED mfsim.nam
 FILE TYPE:NAM6               UNIT 1001   STATUS:OLD                 
 FORMAT:FORMATTED              ACCESS:SEQUENTIAL          
 ACTION:READ                

 # File generated by Flopy version 3.9.1 on 02/10/2026 at 22:10:09.

 OPENED triangle_caseC.tdis
 FILE TYPE:TDIS6              UNIT 1002   STATUS:OLD                 
 FORMAT:FORMATTED              ACCESS:SEQUENTIAL          
 ACTION:READ                

 # File generated by Flopy version 3.9.1 on 02/10/2026 at 22:10:09.

 OPENED triangle_caseC.nam
 FILE TYPE:GWF6               UNIT 1003   STATUS:OLD                 
 FORMAT:FORMATTED              ACCESS:SEQUENTIAL          
 ACTION:READ                

 # File generated by Flopy version 3.9.1 on 02/10/2026 at 22:10:09.

 OPENED triangle_caseC.disv
 FILE TYPE:DISV6              UNIT 1004   STATUS:OLD                 
 FORMAT:FORMATTED              ACCESS:SEQUENTIAL          
 ACTION:READ                

 # File generated by Flopy version 3.9.1 on 02/10/2026 at 22:10:09.

 OPENED triangle_caseC.npf
 FILE TYPE:NPF6               UNIT 1005   STATUS:OLD                 
 FORMAT:FORMATTED              ACCESS:SEQUENTIAL          
 ACTION:READ                

 # File generated by Flopy version 3.9.1 on 02/10/2026 at 22:10:10.

 OPENED triangle_caseC.ic
 FILE TYPE:IC6                UNIT 1006   STATUS:OLD                 
 FORMAT:FORMATTED              ACCESS:SEQUENTIAL          
 ACTION:READ                

 # File generated by Flopy version 3.9.1 on 02/10/2026 at 22:10:10.

 OPENED triangle_caseC.oc
 FILE TYPE:OC6       UNIT 1007   STATUS:OLD                 
 FORMAT:FORMATTED              ACCESS:SEQUENTIAL          
 ACTION:READ                


 OPENED triangle_caseC.wel
 FILE TYPE:WEL6               UNIT 1008   STATUS:OLD                 
 FORMAT:FORMATTED              ACCESS:SEQUENTIAL          
 ACTION:READ                

 # File generated by Flopy version 3.9.1 on 02/10/2026 at 22:10:10.

 OPENED triangle_caseC.rch
 FILE TYPE:RCH6               UNIT 1010   STATUS:OLD                 
 FORMAT:FORMATTED              ACCESS:SEQUENTIAL          
 ACTION:READ                

 # File generated by Flopy version 3.9.1 on 02/10/2026 at 22:10:10.

 OPENED triangle_caseC.evt
 FILE TYPE:EVT6               UNIT 1012   STATUS:OLD                 
 FORMAT:FORMATTED              ACCESS:SEQUENTIAL          
 ACTION:READ                

 # File generated by Flopy version 3.9.1 on 02/10/2026 at 22:10:10.

 OPENED triangle_caseC.chd
 FILE TYPE:CHD6               UNIT 1013   STATUS:OLD                 
 FORMAT:FORMATTED              ACCESS:SEQUENTIAL          
 ACTION:READ                

 # File generated by Flopy version 3.9.1 on 02/10/2026 at 22:10:10.

 READING SIMULATION OPTIONS
    MAXIMUM NUMBER OF ERRORS THAT WILL BE STORED IS 1000
 END OF SIMULATION OPTIONS

 READING SIMULATION TIMING

 TDIS -- TEMPORAL DISCRETIZATION PACKAGE,
 VERSION 1 : 11/13/2014 - INPUT READ FROM MEMPATH: __INPUT__/SIM/TDIS                                
 PROCESSING TDIS OPTIONS
    SIMULATION TIME UNIT IS SECONDS
 END OF TDIS OPTIONS
 PROCESSING TDIS DIMENSIONS
    1 STRESS PERIOD(S) IN SIMULATION
 END OF TDIS DIMENSIONS
 PROCESSING TDIS PERIODDATA


 STRESS PERIOD     LENGTH       TIME STEPS     MULTIPLIER FOR DELT
 ----------------------------------------------------------------------------
        1         1.000000          1                    1.000
 END OF TDIS PERIODDATA
 END OF SIMULATION TIMING

 READING SIMULATION MODELS
    GWF6 model 1 will be created
 END OF SIMULATION MODELS

 READING SIMULATION EXCHANGES
 END OF SIMULATION EXCHANGES

 READING SOLUTIONGROUP

 Creating solution: SLN_1           

 OPENED triangle_caseC.ims
 FILE TYPE:IMS   UNIT 1015   STATUS:OLD                 
 FORMAT:FORMATTED              ACCESS:SEQUENTIAL          
 ACTION:READ                

 END OF SOLUTIONGROUP

PROCESSING MODEL CONNECTIONS

 IMS -- ITERATIVE MODEL SOLUTION PACKAGE, VERSION 6, 4/28/2017
         INPUT READ FROM UNIT 1015
 # File generated by Flopy version 3.9.1 on 02/10/2026 at 22:10:09.

 PROCESSING IMS OPTIONS
 COMPLEX OPTION:
 DEFAULT SOLVER INPUT VALUES REFLECT STRONGLY NONLINEAR MODEL
 END OF IMS OPTIONS

 PROCESSING IMS NONLINEAR
 END OF IMS NONLINEAR DATA
 **UNDER-RELAXATION WILL BE USED***
 

 PROCESSING LINEAR DATA
 END OF LINEAR DATA
 ***IMS LINEAR SOLVER WILL BE USED***

 IMSLINEAR -- UNSTRUCTURED LINEAR SOLUTION PACKAGE, VERSION 8, 04/28/2017
 An asymmetric matrix will be solved

 OUTER ITERATION CONVERGENCE CRITERION    (DVCLOSE) =    0.100000E-02
 MAXIMUM NUMBER OF OUTER ITERATIONS        (MXITER) = 300
 SOLVER PRINTOUT INDEX                     (IPRIMS) = 1
 NONLINEAR ITERATION METHOD            (NONLINMETH) = 3
 LINEAR SOLUTION METHOD                   (LINMETH) = 1
 UNDER-RELAXATION WEIGHT REDUCTION FACTOR   (THETA) =    0.800000E+00
 UNDER-RELAXATION WEIGHT INCREASE INCREMENT (KAPPA) =    0.100000E-03
 UNDER-RELAXATION PREVIOUS HISTORY FACTOR   (GAMMA) =    0.000000E+00
 UNDER-RELAXATION MOMENTUM TERM         (AMOMENTUM) =    0.000000E+00
 MAXIMUM NUMBER OF BACKTRACKS            (NUMTRACK) = 20
 BACKTRACKING TOLERANCE FACTOR               (BTOL) =    0.105000E+01
 BACKTRACKING REDUCTION FACTOR             (BREDUC) =    0.100000E+00
 BACKTRACKING RESIDUAL LIMIT              (RES_LIM) =    0.200000E-02

       SOLUTION BY THE BICONJUGATE-GRADIENT STABILIZED METHOD
 ------------------------------------------------------------------
 MAXIMUM OF 300 CALLS OF SOLUTION ROUTINE
 MAXIMUM OF 1200 INTERNAL ITERATIONS PER CALL TO SOLUTION ROUTINE
 LINEAR ACCELERATION METHOD            = BCGS      
 MATRIX PRECONDITIONING TYPE           = MOD. INCOMPLETE LUT 
 MATRIX SCALING APPROACH               = NO SCALING          
 MATRIX REORDERING APPROACH            = ORIGINAL ORDERING        
 NUMBER OF ORTHOGONALIZATIONS          = 2
 HEAD CHANGE CRITERION FOR CLOSURE     =    0.10000E-05
 RESIDUAL CHANGE CRITERION FOR CLOSURE =    0.10000E+00
 RESIDUAL CONVERGENCE OPTION           = 0
 RESIDUAL CONVERGENCE NORM             = INFINITY NORM   
 RELAXATION FACTOR                     =    0.92000E+00
 NUMBER OF LEVELS                      =              5
 DROP TOLERANCE                        =    0.10000E-03


 
    Solving:  Stress period:     1    Time step:     1
 
1
 STRESS PERIOD NO. 1, LENGTH =   1.000000    
 ------------------------------------------
 NUMBER OF TIME STEPS = 1
 MULTIPLIER FOR DELT =     1.000
 INITIAL TIME STEP SIZE =   1.000000    



 PSEUDO-TRANSIENT CONTINUATION WILL BE APPLIED TO MODEL 1 ("TRIANGLE_CASEC") DURING THIS TIME STEP

 SLN_1 OUTER ITERATION SUMMARY
 ----------------------------------------------------------------------------------------------------------------------------------------------------------------
                                OUTER      INNER  BACKTRACK  BACKTRACK        INCOMING        OUTGOING                    STEP   MAXIMUM CHANGE MODEL-(CELLID) OR
 OUTER ITERATION STEP       ITERATION  ITERATION       FLAG ITERATIONS        RESIDUAL        RESIDUAL  MAXIMUM CHANGE SUCCESS             MODEL-PACKAGE-(NUMBER)
 ----------------------------------------------------------------------------------------------------------------------------------------------------------------
 Backtracking                       1                     0          0       2925.6299       2925.6299                       *                                   
 Model                              1        142                                                            -9.5059948                            1_GWF-(2,10781)
 Backtracking                       2                     0          0      0.52425704      0.52425704                       *                                   
 Model                              2        116                                                           -0.43534719                             1_GWF-(1,4603)
 Backtracking                       3                     1          1       1.5525195      0.50481385                                                           
 Model                              3        115                                                           -0.39181441                             1_GWF-(1,4603)
 Backtracking                       4                     1          1       1.4275480      0.52287779                                                           
 Model                              4        121                                                           -0.35263383                             1_GWF-(1,4603)
 Backtracking                       5                     1          2       1.3127148      0.52543879                                                           
 Model                              5        128                                                           -0.34910755                             1_GWF-(1,4603)
 Backtracking                       6                     1          2       1.3015148      0.52811544                                                           
 Model                              6         91                                                           -0.34561653                             1_GWF-(1,4603)
 Backtracking                       7                     1          2       1.2912757      0.53089982                                                           
 Model                              7        117                                                           -0.34216042                             1_GWF-(1,4603)
 Backtracking                       8                     1          2       1.2792831      0.53376886                                                           
 Model                              8         89                                                           -0.33873887                             1_GWF-(1,4603)
 Backtracking                       9                     1          2       1.2686674      0.53671843                                                           
 Model                              9        107                                                           -0.33535154                             1_GWF-(1,4603)
 Backtracking                      10                     1          2       1.2583222      0.53973879                                                           
 Model                             10        109                                                           -0.33199807                             1_GWF-(1,4603)
 Backtracking                      11                     1          2       1.2477127      0.54281746                                                           
 Model                             11        116                                                           -0.32867814                             1_GWF-(1,4603)
 Backtracking                      12                     1          2       1.2369409      0.54594307                                                           
 Model                             12         98                                                           -0.32539141                             1_GWF-(1,4603)
 Backtracking                      13                     1          2       1.2265918      0.54910866                                                           
 Model                             13        102                                                           -0.32213754                             1_GWF-(1,4603)
 Backtracking                      14                     1          2       1.2162633      0.55230523                                                           
 Model                             14        103                                                           -0.31891621                             1_GWF-(1,4603)
 Backtracking                      15                     1          2       1.2055510      0.55552155                                                           
 Model                             15        125                                                           -0.31572710                             1_GWF-(1,4603)
 Backtracking                      16                     1          2       1.1950773      0.55875107                                                           
 Model                             16         91                                                           -0.31256988                             1_GWF-(1,4603)
 Backtracking                      17                     1          2       1.1850512      0.56198932                                                           
 Model                             17         97                                                           -0.30944423                             1_GWF-(1,4603)
 Backtracking                      18                     1          2       1.1755785      0.56523319                                                           
 Model                             18        103                                                           -0.30634983                             1_GWF-(1,4603)
 Backtracking                      19                     1          2       1.1651602      0.56846923                                                           
 Model                             19        100                                                           -0.30328638                             1_GWF-(1,4603)
 Backtracking                      20                     1          2       1.1560423      0.57170069                                                           
 Model                             20         99                                                           -0.30025356                             1_GWF-(1,4603)
 Backtracking                      21                     1          2       1.1455005      0.57491121                                                           
 Model                             21         91                                                           -0.29725108                             1_GWF-(1,4603)
 Backtracking                      22                     1          2       1.1362293      0.57810481                                                           
 Model                             22         93                                                           -0.29427862                             1_GWF-(1,4603)
 Backtracking                      23                     1          2       1.1260538      0.58126953                                                           
 Model                             23        132                                                           -0.29133588                             1_GWF-(1,4603)
 Backtracking                      24                     1          2       1.1159294      0.58440091                                                           
 Model                             24         95                                                           -0.28842257                             1_GWF-(1,4603)
 Backtracking                      25                     1          2       1.1075343      0.58750790                                                           
 Model                             25         88                                                           -0.28553840                             1_GWF-(1,4603)
 Backtracking                      26                     1          2       1.0977910      0.59057592                                                           
 Model                             26        105                                                           -0.28268306                             1_GWF-(1,4603)
 Backtracking                      27                     1          2       1.0885360      0.59360493                                                           
 Model                             27        103                                                           -0.27985629                             1_GWF-(1,4603)
 Backtracking                      28                     1          2       1.0795085      0.59659315                                                           
 Model                             28         95                                                           -0.27705778                             1_GWF-(1,4603)
 Backtracking                      29                     1          2       1.0697846      0.59953166                                                           
 Model                             29        114                                                           -0.27428725                             1_GWF-(1,4603)
 Backtracking                      30                     1          2       1.0609885      0.60242483                                                           
 Model                             30        131                                                           -0.27154443                             1_GWF-(1,4603)
 Backtracking                      31                     1          2       1.0510395      0.60526037                                                           
 Model                             31         93                                                           -0.26882905                             1_GWF-(1,4603)
 Backtracking                      32                     1          1       1.0431894      0.63537705                                                           
 Model                             32         91                                                           -0.24194671                             1_GWF-(1,4603)
 Backtracking                      33                     1          1      0.95678506      0.65836236                                                           
 Model                             33         93                                                           -0.21775271                             1_GWF-(1,4603)
 Backtracking                      34                     1          1      0.88010850      0.67418836                                                           
 Model                             34        114                                                           -0.19597815                             1_GWF-(1,4603)
 Backtracking                      35                     1          1      0.80919416      0.68317164                                                           
 Model                             35        111                                                           -0.17638108                             1_GWF-(1,4603)
 Backtracking                      36                     1          1      0.74357832      0.68592804                                                           
 Model                             36         95                                                           -0.15874371                             1_GWF-(1,4603)
 Backtracking                      37                     0          0      0.68379704      0.68379704                       *                                   
 Model                             37         22                                                        2.65451428E-03                             1_GWF-(1,9592)
 Backtracking                      38                     0          0      0.13445688      0.13445688                       *                                   
 Model                             38         11                                                        5.18399093E-04       *                     1_GWF-(1,9592)
 ----------------------------------------------------------------------------------------------------------------------------------------------------------------


 38 CALLS TO NUMERICAL SOLUTION IN TIME STEP 1 STRESS PERIOD 1
 3846 TOTAL ITERATIONS

 MEMORY MANAGER TOTAL STORAGE BY DATA TYPE, IN MEGABYTES
 -------------------------------
                    ALLOCATED   
 DATA TYPE           MEMORY     
 -------------------------------
 Character        1.01880000E-02
 Logical          4.80000000E-05
 Integer          7.5193600     
 Real             16.206680     
 -------------------------------
 Total            23.736276     
 Virtual          0.0000000     
 -------------------------------


 
 Run end date and time (yyyy/mm/dd hh:mm:ss): 2026/02/10 22:10:16
 Elapsed run time:  5.496 Seconds
 Normal termination of simulation.
