                                   MODFLOW 6
                U.S. GEOLOGICAL SURVEY MODULAR HYDROLOGIC MODEL
                          GROUNDWATER FLOW MODEL (GWF)
                            VERSION 6.6.0 12/20/2024

   MODFLOW 6 compiled Dec 31 2024 17:10:16 with Intel(R) Fortran Intel(R) 64
   Compiler Classic for applications running on Intel(R) 64, Version 2021.7.0
                             Build 20220726_000000

This software has been approved for release by the U.S. Geological 
Survey (USGS). Although the software has been subjected to rigorous 
review, the USGS reserves the right to update the software as needed 
pursuant to further analysis and review. No warranty, expressed or 
implied, is made by the USGS or the U.S. Government as to the 
functionality of the software and related material nor shall the 
fact of release constitute any such warranty. Furthermore, the 
software is released on condition that neither the USGS nor the U.S. 
Government shall be held liable for any damages resulting from its 
authorized or unauthorized use. Also refer to the USGS Water 
Resources Software User Rights Notice for complete use, copyright, 
and distribution information.


As a work of the United States Government, this USGS product is 
in the public domain within the United States. You can copy, 
modify, distribute, and perform the work, even for commercial 
purposes, all without asking permission. Additionally, USGS 
waives copyright and related rights in the work worldwide 
through CC0 1.0 Universal Public Domain Dedication 
(https://creativecommons.org/publicdomain/zero/1.0/).

The following GNU Lesser General Public License (LGPL) libraries
are used in this USGS product:

    SPARSKIT version 2.0
      ilut, luson, and qsplit 
      (https://www-users.cse.umn.edu/~saad/software/SPARSKIT/)

    RCM - Reverse Cuthill McKee Ordering
      (https://people.math.sc.edu/Burkardt/f_src/rcm/rcm.html)

    BLAS - Basic Linear Algebra Subprograms Level 1
      (https://people.math.sc.edu/Burkardt/f_src/blas1_d/blas1_d.html)

    SPARSEKIT - Sparse Matrix Utility Package
      amux, dperm, dvperm, rperm, and cperm
      (https://people.sc.fsu.edu/~jburkardt/f77_src/sparsekit/sparsekit.html)

The following BSD-3 License libraries are used in this USGS product:

    Modern Fortran DAG Library
      Copyright (c) 2018, Jacob Williams
      All rights reserved.
      (https://github.com/jacobwilliams/daglib)

MODFLOW 6 compiler options: /O2 /heap-arrays:0 /fpe:0 /traceback /nologo /fpp
/c /module:win64\mod_mf6\ /object:win64\obj_mf6\

System command used to initiate simulation:
mf6

MODFLOW was compiled using uniform precision.

Real Variables
  KIND: 8
  TINY (smallest non-zero value):    2.225074-308
  HUGE (largest value):    1.797693+308
  PRECISION: 15
  SIZE IN BITS: 64

Integer Variables
  KIND: 4
  HUGE (largest value): 2147483647
  SIZE IN BITS: 32

Long Integer Variables
  KIND: 8
  HUGE (largest value): 9223372036854775807
  SIZE IN BITS: 64

Logical Variables
  KIND: 4
  SIZE IN BITS: 32
 
 NAMEFILE OPTIONS:
    NEWTON-RAPHSON method enabled for the model.
    NEWTON-RAPHSON UNDER-RELAXATION based on the bottom elevation of the model will be applied to the model.
    FLOWS WILL BE SAVED TO BUDGET FILE SPECIFIED IN OUTPUT CONTROL
 END NAMEFILE OPTIONS:

 DISV -- VERTEX GRID DISCRETIZATION PACKAGE, VERSION 1 : 12/23/2015 - INPUT READ FROM MEMPATH: __INPUT__/TRIANGLE_CASEC/DISV                     


 Setting Discretization Options
 End Setting Discretization Options

 Setting Discretization Dimensions
    NLAY = 2
    NCPL = 12818
    NVERT = 7464
 End Setting Discretization Dimensions

 Setting Discretization Griddata
    TOP set from input file
    BOTM set from input file
 End Setting Discretization Griddata

 Discretization Vertex data loaded
 Discretization Cell2d data loaded

 NPF -- NODE PROPERTY FLOW PACKAGE, VERSION 1, 3/30/2015 INPUT READ FROM MEMPATH: __INPUT__/TRIANGLE_CASEC/NPF                      


 IC -- Initial Conditions Package, Version 8, 3/28/2015 input read from mempath: __INPUT__/TRIANGLE_CASEC/IC                       


 Setting NPF Options
    Cell-by-cell flow information will be saved to binary file whenever ICBCFL is not zero.
    Specific discharge will be calculated at cell centers and written to DATA-SPDIS in budget file when requested.
 End Setting NPF Options

 Setting NPF Griddata
    ICELLTYPE set from input file
    K set from input file
    K33 not provided.  Setting K33 = K.
    K22 not provided.  Setting K22 = K.
 End Setting NPF Griddata


 WEL   -- WEL PACKAGE, VERSION 8, 2/22/2014 INPUT READ FROM MEMPATH: __INPUT__/TRIANGLE_CASEC/WELL_CASEC               

 PROCESSING WEL BASE OPTIONS
    FLOWS WILL BE SAVED TO BUDGET FILE SPECIFIED IN OUTPUT CONTROL
 END OF WEL BASE OPTIONS

 PROCESSING WEL OPTIONS
 END OF WEL OPTIONS

 PROCESSING WEL BASE DIMENSIONS
    MAXBOUND =   15194
 END OF WEL BASE DIMENSIONS

 RCH   -- RCH PACKAGE, VERSION 8, 2/22/2014 INPUT READ FROM MEMPATH: __INPUT__/TRIANGLE_CASEC/RCH                      

 PROCESSING RCH BASE OPTIONS
    FLOWS WILL BE SAVED TO BUDGET FILE SPECIFIED IN OUTPUT CONTROL
    RCH FLOWS WILL BE PRINTED TO LISTING FILE.
 END OF RCH BASE OPTIONS

 PROCESSING RCH OPTIONS
    RECHARGE WILL BE APPLIED TO SPECIFIED CELL.
 END OF RCH OPTIONS

 PROCESSING RCH BASE DIMENSIONS
    MAXBOUND =   12818
 END OF RCH BASE DIMENSIONS

 EVT   -- EVT PACKAGE, VERSION 8, 2/22/2014 INPUT READ FROM MEMPATH: __INPUT__/TRIANGLE_CASEC/EVT                      

 PROCESSING EVT BASE OPTIONS
    FLOWS WILL BE SAVED TO BUDGET FILE SPECIFIED IN OUTPUT CONTROL
 END OF EVT BASE OPTIONS

 PROCESSING EVT OPTIONS
 END OF EVT OPTIONS

 PROCESSING EVT BASE DIMENSIONS
    MAXBOUND =   10279
 END OF EVT BASE DIMENSIONS

 PROCESSING EVT DIMENSIONS
    NSEG = 1
 END OF EVT DIMENSIONS

 CHD   -- CHD PACKAGE, VERSION 8, 2/22/2014 INPUT READ FROM MEMPATH: __INPUT__/TRIANGLE_CASEC/CHD                      

 PROCESSING CHD BASE OPTIONS
    FLOWS WILL BE SAVED TO BUDGET FILE SPECIFIED IN OUTPUT CONTROL
 END OF CHD BASE OPTIONS

 PROCESSING CHD BASE DIMENSIONS
    MAXBOUND =    3460
 END OF CHD BASE DIMENSIONS
    STRT set from input file
    BINARY GRID INFORMATION WILL BE WRITTEN TO:
      UNIT NUMBER: 1016
      FILE NAME: triangle_caseC.disv.grb

 OPENED triangle_caseC.disv.grb
 FILE TYPE:DATA(BINARY)   UNIT 1016   STATUS:REPLACE             
 FORMAT:UNFORMATTED            ACCESS:STREAM              
 ACTION:READWRITE           

      THE LAST TIME STEP WILL BE PRINTED
      THE LAST TIME STEP WILL BE PRINTED
 # File generated by Flopy version 3.9.1 on 02/10/2026 at 22:10:10.

 PROCESSING OC OPTIONS

    BUDGET INFORMATION WILL BE WRITTEN TO:
      UNIT NUMBER: 1017
      FILE NAME: triangle_caseC.cbc

 OPENED triangle_caseC.cbc
 FILE TYPE:DATA(BINARY)   UNIT 1017   STATUS:REPLACE             
 FORMAT:UNFORMATTED            ACCESS:STREAM              
 ACTION:READWRITE           

    HEAD INFORMATION WILL BE WRITTEN TO:
      UNIT NUMBER: 1018
      FILE NAME: triangle_caseC.hds

 OPENED triangle_caseC.hds
 FILE TYPE:DATA(BINARY)   UNIT 1018   STATUS:REPLACE             
 FORMAT:UNFORMATTED            ACCESS:STREAM              
 ACTION:READWRITE           

 END OF OC OPTIONS

start timestep kper="1" kstp="1" mode="normal"


 BEGIN READING OUTPUT CONTROL FOR STRESS PERIOD 1
      THE LAST TIME STEP WILL BE SAVED
      THE LAST TIME STEP WILL BE SAVED
      THE LAST TIME STEP WILL BE PRINTED

 END READING OUTPUT CONTROL FOR STRESS PERIOD 1
 UBDSV1 SAVING     FLOW-JA-FACE ON UNIT   1017 AT TIME STEP      1, STRESS PERIOD      1
 UBDSV06 SAVING       DATA-SPDIS IN MODEL TRIANGLE_CASEC   PACKAGE NPF             CONNECTED TO MODEL TRIANGLE_CASEC   PACKAGE NPF              ON UNIT   1017 AT TIME STEP      1, STRESS PERIOD      1
 UBDSV06 SAVING              WEL IN MODEL TRIANGLE_CASEC   PACKAGE TRIANGLE_CASEC  CONNECTED TO MODEL TRIANGLE_CASEC   PACKAGE WELL_CASEC       ON UNIT   1017 AT TIME STEP      1, STRESS PERIOD      1
 UBDSV06 SAVING              RCH IN MODEL TRIANGLE_CASEC   PACKAGE TRIANGLE_CASEC  CONNECTED TO MODEL TRIANGLE_CASEC   PACKAGE RCH              ON UNIT   1017 AT TIME STEP      1, STRESS PERIOD      1
 UBDSV06 SAVING              EVT IN MODEL TRIANGLE_CASEC   PACKAGE TRIANGLE_CASEC  CONNECTED TO MODEL TRIANGLE_CASEC   PACKAGE EVT              ON UNIT   1017 AT TIME STEP      1, STRESS PERIOD      1
 UBDSV06 SAVING              CHD IN MODEL TRIANGLE_CASEC   PACKAGE TRIANGLE_CASEC  CONNECTED TO MODEL TRIANGLE_CASEC   PACKAGE CHD              ON UNIT   1017 AT TIME STEP      1, STRESS PERIOD      1

 RCH PACKAGE (RCH) FLOW RATES   PERIOD      1   STEP        1
 -----------------------------------------------
   NUMBER   CELLID                    RATE      
 -----------------------------------------------
     1      (1,1)                 3.43867669E-04
     2      (1,2)                 0.0000000     
     3      (1,3)                 1.88902463E-04
     4      (1,4)                 3.02405094E-05
     5      (1,5)                 2.73851319E-06
     6      (1,6)                 2.75453561E-05
     7      (1,7)                 1.11868816E-03
     8      (1,8)                 1.91157234E-05
     9      (1,9)                 1.28270281E-03
     10     (1,10)                7.84193281E-04
     11     (1,11)                1.23428232E-06
     12     (1,12)                1.03334904E-03
     13     (1,13)                1.28755949E-04
     14     (1,14)                1.19010191E-06
     15     (1,15)                2.61301691E-06
     16     (1,16)                9.90545884E-06
     17     (1,17)                5.75615261E-03
     18     (1,18)                1.44408713E-05
     19     (1,19)                1.23435340E-06
     20     (1,20)                1.14657677E-03
     21     (1,21)                1.77531196E-05
     22     (1,22)                1.00302285E-05
     23     (1,23)                1.49993770E-05
     24     (1,24)                1.00319707E-05
     25     (1,25)                2.88791901E-06
     26     (1,26)                2.22957274E-05
     27     (1,27)                5.61319661E-04
     28     (1,28)                1.18979764E-06
     29     (1,29)                1.23947911E-05
     30     (1,30)                1.26806305E-05
     31     (1,31)                2.58305201E-04
     32     (1,32)                1.19011986E-06
     33     (1,33)                2.06176205E-05
     34     (1,34)                1.00338069E-05
     35     (1,35)                5.88017364E-04
     36     (1,36)                2.34882954E-05
     37     (1,37)                1.03289466E-05
     38     (1,38)                2.13465448E-06
     39     (1,39)                4.08678501E-06
     40     (1,40)                1.77502573E-05
     41     (1,41)                6.11004994E-05
     42     (1,42)                2.13332595E-06
     43     (1,43)                1.48797220E-03
     44     (1,44)                4.78905810E-04
     45     (1,45)                8.95337189E-05
     46     (1,46)                4.43131077E-04
     47     (1,47)                3.65105343E-05
     48     (1,48)                2.16763343E-05
     49     (1,49)                3.11407043E-04
     50     (1,50)                3.90950130E-06
     51     (1,51)                2.03953421E-03
     52     (1,52)                1.50440890E-06
     53     (1,53)                5.53960678E-05
     54     (1,54)                1.23282274E-03
     55     (1,55)                1.64489072E-05
     56     (1,56)                1.11803220E-04
     57     (1,57)                1.04998713E-06
     58     (1,58)                6.04947969E-05
     59     (1,59)                3.73040460E-05
     60     (1,60)                2.44456228E-04
     61     (1,61)                1.04819116E-03
     62     (1,62)                0.0000000     
     63     (1,63)                1.68274547E-05
     64     (1,64)                9.63157732E-06
     65     (1,65)                1.18147268E-06
     66     (1,66)                1.96628270E-03
     67     (1,67)                9.90930139E-06
     68     (1,68)                1.89830517E-05
     69     (1,69)                1.14027476E-06
     70     (1,70)                2.03030645E-06
     71     (1,71)                0.0000000     
     72     (1,72)                4.12610816E-06
     73     (1,73)                8.88483319E-06
     74     (1,74)                9.13437246E-06
     75     (1,75)                6.80241838E-04
     76     (1,76)                5.04790326E-06
     77     (1,77)                2.03831690E-03
     78     (1,78)                1.28419819E-03
     79     (1,79)                6.60886391E-05
     80     (1,80)                2.94626502E-04
     81     (1,81)                4.70832560E-05
     82     (1,82)                2.91058045E-04
     83     (1,83)                2.01768353E-03
     84     (1,84)                5.43183736E-05
     85     (1,85)                2.83608671E-05
     86     (1,86)                1.17886623E-06
     87     (1,87)                1.18128030E-06
     88     (1,88)                1.45221345E-03
     89     (1,89)                3.57706246E-04
     90     (1,90)                8.35664443E-04
     91     (1,91)                3.02650172E-05
     92     (1,92)                3.63952498E-07
     93     (1,93)                1.47797753E-06
     94     (1,94)                1.27100999E-05
     95     (1,95)                1.14789497E-06
     96     (1,96)                1.24198010E-05
     97     (1,97)                4.12343829E-04
     98     (1,98)                4.00958485E-05
     99     (1,99)                1.91595403E-05
    100     (1,100)               1.24453581E-03
    101     (1,101)               1.96204489E-05
    102     (1,102)               1.24072525E-06
    103     (1,103)               2.69347339E-06
    104     (1,104)               2.94105730E-05
    105     (1,105)               3.46936795E-06
    106     (1,106)               1.00692075E-05
    107     (1,107)               3.30712286E-06
    108     (1,108)               1.12327706E-03
    109     (1,109)               1.00733126E-05
    110     (1,110)               2.55196864E-06
    111     (1,111)               1.11610106E-06
    112     (1,112)               1.03733189E-05
    113     (1,113)               1.00733047E-05
    114     (1,114)               1.24072701E-06
    115     (1,115)               2.75748767E-06
    116     (1,116)               1.03712581E-05
    117     (1,117)               1.16120370E-06
    118     (1,118)               1.50396467E-05
    119     (1,119)               1.75043427E-05
    120     (1,120)               5.35552240E-04
    121     (1,121)               2.41270482E-04
    122     (1,122)               1.24192727E-06
    123     (1,123)               1.03786472E-05
    124     (1,124)               1.00777142E-05
    125     (1,125)               2.91999879E-06
    126     (1,126)               1.34661456E-05
    127     (1,127)               1.03765560E-05
    128     (1,128)               1.16170571E-06
    129     (1,129)               1.19625483E-06
    130     (1,130)               1.03717352E-05
    131     (1,131)               1.89815165E-06
    132     (1,132)               1.07212744E-03
    133     (1,133)               1.26325549E-03
    134     (1,134)               1.07396047E-05
    135     (1,135)               1.26465986E-05
    136     (1,136)               2.03880826E-05
    137     (1,137)               2.95481642E-06
    138     (1,138)               1.27685094E-06
    139     (1,139)               1.55107036E-03
    140     (1,140)               2.08160695E-05
    141     (1,141)               1.00286740E-05
    142     (1,142)               1.00269465E-05
    143     (1,143)               1.77474998E-05
    144     (1,144)               2.77504969E-06
    145     (1,145)               1.32680598E-06
    146     (1,146)               8.62406903E-05
    147     (1,147)               1.86076310E-05
    148     (1,148)               2.77651077E-04
    149     (1,149)               2.27098097E-06
    150     (1,150)               4.08542320E-06
    151     (1,151)               1.24538536E-06
    152     (1,152)               0.0000000     
    153     (1,153)               1.89006456E-05
    154     (1,154)               9.09226456E-04
    155     (1,155)               1.27647604E-06
    156     (1,156)               1.10637800E-05
    157     (1,157)               1.07363499E-05
    158     (1,158)               2.21244460E-05
    159     (1,159)               2.93643419E-06
    160     (1,160)               4.43818098E-06
    161     (1,161)               1.80945377E-04
    162     (1,162)               1.16025651E-03
    163     (1,163)               3.21576024E-05
    164     (1,164)               1.35337719E-05
    165     (1,165)               2.74386367E-06
    166     (1,166)               1.19628781E-06
    167     (1,167)               1.32184778E-05
    168     (1,168)               2.18801017E-05
    169     (1,169)               1.32620000E-06
    170     (1,170)               2.04404310E-06
    171     (1,171)               1.07361071E-05
    172     (1,172)               1.24515450E-06
    173     (1,173)               1.36217530E-04
    174     (1,174)               7.80589357E-04
    175     (1,175)               0.0000000     
    176     (1,176)               1.13148097E-06
    177     (1,177)               1.14012530E-06
    178     (1,178)               2.37442567E-04
    179     (1,179)               1.53544331E-03
    180     (1,180)               1.22375593E-06
    181     (1,181)               1.40854644E-03
    182     (1,182)               1.41822470E-03
    183     (1,183)               9.53247430E-06
    184     (1,184)               2.88073725E-05
    185     (1,185)               2.53015228E-06
    186     (1,186)               1.81884462E-05
    187     (1,187)               1.39160774E-03
    188     (1,188)               1.08042416E-03
    189     (1,189)               1.66313317E-05
    190     (1,190)               7.95518096E-04
    191     (1,191)               1.17090529E-06
    192     (1,192)               1.24461510E-03
    193     (1,193)               1.80953315E-05
    194     (1,194)               1.87244091E-05
    195     (1,195)               1.09033713E-06
    196     (1,196)               1.04930692E-06
    197     (1,197)               2.72773362E-05
    198     (1,198)               3.76810850E-06
    199     (1,199)               2.46981442E-06
    200     (1,200)               9.51659434E-04
    201     (1,201)               2.59403241E-06
    202     (1,202)               9.53102144E-06
    203     (1,203)               9.81178641E-06
    204     (1,204)               5.31896767E-04
    205     (1,205)               1.12944533E-06
    206     (1,206)               9.53282122E-06
    207     (1,207)               1.42800716E-05
    208     (1,208)               1.16772955E-06
    209     (1,209)               1.20625674E-05
    210     (1,210)               1.17927130E-05
    211     (1,211)               2.76799560E-06
    212     (1,212)               1.21099436E-06
    213     (1,213)               2.88062204E-05
    214     (1,214)               1.20612544E-05
    215     (1,215)               1.04928347E-06
    216     (1,216)               1.17076658E-06
    217     (1,217)               9.81089249E-06
    218     (1,218)               1.12991236E-06
    219     (1,219)               1.12983143E-06
    220     (1,220)               9.80806401E-06
    221     (1,221)               5.66130560E-04
    222     (1,222)               1.17102895E-06
    223     (1,223)               1.43200598E-04
    224     (1,224)               3.44372881E-04
    225     (1,225)               1.41271970E-04
    226     (1,226)               1.12977062E-06
    227     (1,227)               4.01314105E-06
    228     (1,228)               1.01352310E-05
    229     (1,229)               2.84628047E-06
    230     (1,230)               1.47175241E-05
    231     (1,231)               1.09074177E-03
    232     (1,232)               1.16553372E-03
    233     (1,233)               1.08978343E-03
    234     (1,234)               1.21869812E-03
    235     (1,235)               1.01329472E-05
    236     (1,236)               1.16777835E-06
    237     (1,237)               1.16783465E-06
    238     (1,238)               1.56268446E-05
    239     (1,239)               2.44932742E-05
    240     (1,240)               9.84160889E-06
    241     (1,241)               2.09430976E-06
    242     (1,242)               1.16722848E-03
    243     (1,243)               1.71309705E-05
    244     (1,244)               2.68760008E-06
    245     (1,245)               1.16787372E-06
    246     (1,246)               9.84214171E-06
    247     (1,247)               2.88087157E-05
    248     (1,248)               1.21104685E-06
    249     (1,249)               1.16765762E-06
    250     (1,250)               1.47162675E-05
    251     (1,251)               5.55479138E-06
    252     (1,252)               1.92444354E-05
    253     (1,253)               9.84015939E-06
    254     (1,254)               1.47140633E-05
    255     (1,255)               1.50902120E-04
    256     (1,256)               1.16761833E-06
    257     (1,257)               9.84041160E-06
    258     (1,258)               1.01327183E-05
    259     (1,259)               1.01319022E-05
    260     (1,260)               2.09412484E-06
    261     (1,261)               1.01309545E-05
    262     (1,262)               1.16742921E-06
    263     (1,263)               2.09408715E-06
    264     (1,264)               1.74128907E-05
    265     (1,265)               1.16762034E-06
    266     (1,266)               0.25177956    
    267     (1,267)               2.02253580E-06
    268     (1,268)               0.0000000     
    269     (1,269)               2.61133077E-06
    270     (1,270)               2.74536209E-05
    271     (1,271)               9.56880327E-05
    272     (1,272)               2.93818884E-05
    273     (1,273)               9.84620435E-06
    274     (1,274)               1.96894306E-05
    275     (1,275)               1.91359941E-04
    276     (1,276)               3.94628617E-04
    277     (1,277)               1.01651689E-05
    278     (1,278)               1.22871048E-03
    279     (1,279)               8.98909114E-06
    280     (1,280)               2.09943449E-05
    281     (1,281)               1.30524597E-05
    282     (1,282)               1.27510458E-05
    283     (1,283)               2.77100795E-06
    284     (1,284)               2.71856936E-06
    285     (1,285)               1.19457516E-06
    286     (1,286)               1.27539608E-06
    287     (1,287)               1.21476179E-05
    288     (1,288)               0.0000000     
    289     (1,289)               1.61833340E-05
    290     (1,290)               1.06560422E-05
    291     (1,291)               8.68542845E-05
    292     (1,292)               1.54394780E-05
    293     (1,293)               1.02319760E-05
    294     (1,294)               1.05399544E-05
    295     (1,295)               2.84602577E-06
    296     (1,296)               2.18353202E-06
    297     (1,297)               1.08977681E-05
    298     (1,298)               1.21536226E-06
    299     (1,299)               1.03423475E-05
    300     (1,300)               1.06541502E-05
    301     (1,301)               2.29061358E-06
    302     (1,302)               1.22883014E-06
    303     (1,303)               1.30524637E-05
    304     (1,304)               3.10592207E-05
    305     (1,305)               1.14825465E-06
    306     (1,306)               1.22892658E-06
    307     (1,307)               1.27521707E-05
    308     (1,308)               2.16624689E-06
    309     (1,309)               1.21528258E-06
    310     (1,310)               2.11518180E-05
    311     (1,311)               4.84657690E-04
    312     (1,312)               1.27550546E-06
    313     (1,313)               1.25181777E-06
    314     (1,314)               1.01609784E-05
    315     (1,315)               1.04652907E-05
    316     (1,316)               1.01601536E-05
    317     (1,317)               1.16762287E-06
    318     (1,318)               1.21108902E-06
    319     (1,319)               8.03273879E-04
    320     (1,320)               1.20634848E-06
    321     (1,321)               1.56238615E-05
    322     (1,322)               2.78184217E-06
    323     (1,323)               1.58922610E-05
    324     (1,324)               9.84140193E-06
    325     (1,325)               1.08772308E-06
    326     (1,326)               1.71306525E-05
    327     (1,327)               2.68786204E-06
    328     (1,328)               1.21093245E-06
    329     (1,329)               1.25188629E-06
    330     (1,330)               1.16766410E-06
    331     (1,331)               3.31206376E-04
    332     (1,332)               1.51738244E-05
    333     (1,333)               2.51036256E-05
    334     (1,334)               1.60915196E-05
    335     (1,335)               2.57469166E-06
    336     (1,336)               1.12636291E-06
    337     (1,337)               1.04684485E-05
    338     (1,338)               1.98099336E-05
    339     (1,339)               2.96378270E-06
    340     (1,340)               1.17186361E-06
    341     (1,341)               1.76632511E-05
    342     (1,342)               1.12616813E-06
    343     (1,343)               3.89821455E-03
    344     (1,344)               2.57493802E-06
    345     (1,345)               4.10090313E-02
    346     (1,346)               1.20663288E-06
    347     (1,347)               7.30146201E-03
    348     (1,348)               2.73769656E-06
    349     (1,349)               8.41982571E-02
    350     (1,350)               0.12202560    
    351     (1,351)               4.14246936E-06
    352     (1,352)               3.18869067E-02
    353     (1,353)               5.96841135E-03
    354     (1,354)               1.04661308E-05
    355     (1,355)               2.96834442E-05
    356     (1,356)               2.86470006E-06
    357     (1,357)               2.45557512E-05
    358     (1,358)               1.24990917E-03
    359     (1,359)               1.13750602E-06
    360     (1,360)               1.23865912E-03
    361     (1,361)               2.49518329E-05
    362     (1,362)               1.06435883E-03
    363     (1,363)               1.20493575E-03
    364     (1,364)               3.80272192E-05
    365     (1,365)               8.81956028E-05
    366     (1,366)               3.39752391E-04
    367     (1,367)               1.86902296E-05
    368     (1,368)               2.69138085E-06
    369     (1,369)               1.50890306E-03
    370     (1,370)               2.09542185E-06
    371     (1,371)               1.24021303E-05
    372     (1,372)               2.95201592E-05
    373     (1,373)               1.16651771E-06
    374     (1,374)               4.14224883E-06
    375     (1,375)               2.01052936E-05
    376     (1,376)               9.82446714E-06
    377     (1,377)               2.34572537E-05
    378     (1,378)               1.21046221E-06
    379     (1,379)               1.21123194E-05
    380     (1,380)               2.45678021E-04
    381     (1,381)               5.55975108E-04
    382     (1,382)               2.69076547E-06
    383     (1,383)               1.01189069E-05
    384     (1,384)               1.17317718E-03
    385     (1,385)               1.01398505E-03
    386     (1,386)               1.23087888E-03
    387     (1,387)               1.20608844E-03
    388     (1,388)               1.65302615E-04
    389     (1,389)               1.20966199E-03
    390     (1,390)               9.82197658E-06
    391     (1,391)               9.82332925E-06
    392     (1,392)               1.73456743E-05
    393     (1,393)               2.81891225E-04
    394     (1,394)               1.21053795E-06
    395     (1,395)               1.01177063E-05
    396     (1,396)               1.55464755E-05
    397     (1,397)               1.81375559E-06
    398     (1,398)               7.67392856E-06
    399     (1,399)               1.46684196E-05
    400     (1,400)               1.12094529E-06
    401     (1,401)               1.01151394E-03
    402     (1,402)               1.20590701E-03
    403     (1,403)               4.96846705E-07
    404     (1,404)               3.09395595E-04
    405     (1,405)               1.13338306E-06
    406     (1,406)               1.73455608E-05
    407     (1,407)               9.39168260E-06
    408     (1,408)               9.82341409E-06
    409     (1,409)               1.09648157E-06
    410     (1,410)               2.86547366E-06
    411     (1,411)               1.01192885E-05
    412     (1,412)               1.09638142E-06
    413     (1,413)               1.19294182E-03
    414     (1,414)               1.66340215E-07
    415     (1,415)               1.19766934E-03
    416     (1,416)               1.91651947E-03
    417     (1,417)               9.25032508E-06
    418     (1,418)               2.79528392E-05
    419     (1,419)               1.86590213E-06
    420     (1,420)               1.13636962E-06
    421     (1,421)               1.09621076E-06
    422     (1,422)               1.09629773E-06
    423     (1,423)               1.76517186E-05
    424     (1,424)               2.48176346E-06
    425     (1,425)               1.17055260E-05
    426     (1,426)               2.64549661E-05
    427     (1,427)               1.13646414E-06
    428     (1,428)               5.15274451E-06
    429     (1,429)               1.75643328E-05
    430     (1,430)               1.17036219E-05
    431     (1,431)               9.98059616E-04
    432     (1,432)               1.13638029E-06
    433     (1,433)               1.14467859E-05
    434     (1,434)               2.51759157E-06
    435     (1,435)               9.52336161E-06
    436     (1,436)               1.14452758E-05
    437     (1,437)               1.09655331E-06
    438     (1,438)               1.96305280E-06
    439     (1,439)               9.52121394E-06
    440     (1,440)               1.38593147E-05
    441     (1,441)               2.51834363E-06
    442     (1,442)               1.09683487E-06
    443     (1,443)               1.17042662E-05
    444     (1,444)               5.64360624E-04
    445     (1,445)               9.25048485E-06
    446     (1,446)               1.09623845E-06
    447     (1,447)               5.30677240E-05
    448     (1,448)               1.13674676E-06
    449     (1,449)               6.99938427E-04
    450     (1,450)               6.68202213E-05
    451     (1,451)               2.87327698E-06
    452     (1,452)               1.27271252E-03
    453     (1,453)               1.02136584E-05
    454     (1,454)               1.22207692E-06
    455     (1,455)               1.17809923E-06
    456     (1,456)               1.02197526E-05
    457     (1,457)               1.22203429E-06
    458     (1,458)               1.17766898E-06
    459     (1,459)               3.34375419E-05
    460     (1,460)               1.22252753E-06
    461     (1,461)               4.82797773E-05
    462     (1,462)               1.59745720E-05
    463     (1,463)               1.02154722E-05
    464     (1,464)               2.87353764E-06
    465     (1,465)               1.17764296E-06
    466     (1,466)               9.91766984E-06
    467     (1,467)               1.17741142E-06
    468     (1,468)               1.57096364E-05
    469     (1,469)               1.48142510E-05
    470     (1,470)               1.22017825E-03
    471     (1,471)               2.71686232E-06
    472     (1,472)               1.22251179E-06
    473     (1,473)               1.22284722E-06
    474     (1,474)               5.19388140E-05
    475     (1,475)               1.22607139E-03
    476     (1,476)               9.93040665E-04
    477     (1,477)               2.78806366E-04
    478     (1,478)               1.22383800E-03
    479     (1,479)               1.22099156E-03
    480     (1,480)               1.39650516E-04
    481     (1,481)               1.57131862E-05
    482     (1,482)               2.11523696E-06
    483     (1,483)               1.17824188E-06
    484     (1,484)               1.02177085E-05
    485     (1,485)               1.02184331E-05
    486     (1,486)               1.17791691E-06
    487     (1,487)               1.72414500E-05
    488     (1,488)               9.92086308E-06
    489     (1,489)               2.87400066E-06
    490     (1,490)               2.45840720E-05
    491     (1,491)               8.81576550E-04
    492     (1,492)               3.92014875E-04
    493     (1,493)               6.66546382E-04
    494     (1,494)               9.91775916E-06
    495     (1,495)               2.13862285E-04
    496     (1,496)               1.02876688E-05
    497     (1,497)               9.99146110E-06
    498     (1,498)               1.76325932E-05
    499     (1,499)               1.23184763E-06
    500     (1,500)               2.73864311E-06
    501     (1,501)               9.99106211E-06
    502     (1,502)               1.23187509E-06
    503     (1,503)               9.25354910E-06
    504     (1,504)               1.39384151E-03
    505     (1,505)               1.96324129E-06
    506     (1,506)               1.64052012E-05
    507     (1,507)               5.71115604E-05
    508     (1,508)               3.46600901E-04
    509     (1,509)               1.18670943E-06
    510     (1,510)               1.23169796E-06
    511     (1,511)               1.49103189E-05
    512     (1,512)               1.18643801E-06
    513     (1,513)               2.89594993E-06
    514     (1,514)               6.26728248E-04
    515     (1,515)               9.99435223E-06
    516     (1,516)               1.90067649E-05
    517     (1,517)               1.18699727E-06
    518     (1,518)               6.45520611E-06
    519     (1,519)               1.46716582E-03
    520     (1,520)               1.26120233E-05
    521     (1,521)               1.46706387E-03
    522     (1,522)               3.00174823E-05
    523     (1,523)               1.23217878E-05
    524     (1,524)               6.38585375E-04
    525     (1,525)               1.02920361E-05
    526     (1,526)               3.00098790E-05
    527     (1,527)               2.91645143E-06
    528     (1,528)               2.13191995E-06
    529     (1,529)               1.18658126E-06
    530     (1,530)               1.23221454E-06
    531     (1,531)               1.46601055E-03
    532     (1,532)               1.10878419E-06
    533     (1,533)               1.26083867E-05
    534     (1,534)               1.18705550E-06
    535     (1,535)               1.18717488E-06
    536     (1,536)               1.85325011E-03
    537     (1,537)               4.56025260E-04
    538     (1,538)               1.09675074E-06
    539     (1,539)               1.56772984E-03
    540     (1,540)               1.22199351E-06
    541     (1,541)               1.21560089E-03
    542     (1,542)               1.13604443E-06
    543     (1,543)               7.74680386E-04
    544     (1,544)               9.65562540E-06
    545     (1,545)               1.15335997E-06
    546     (1,546)               2.91308837E-06
    547     (1,547)               1.10844195E-06
    548     (1,548)               2.05824931E-05
    549     (1,549)               1.34682115E-03
    550     (1,550)               2.46064473E-05
    551     (1,551)               1.55125369E-03
    552     (1,552)               1.34714248E-03
    553     (1,553)               7.74199107E-04
    554     (1,554)               1.28561833E-03
    555     (1,555)               9.96936599E-06
    556     (1,556)               4.00115778E-06
    557     (1,557)               1.15304374E-06
    558     (1,558)               1.02723950E-05
    559     (1,559)               1.57527566E-05
    560     (1,560)               1.02738289E-05
    561     (1,561)               1.22968953E-06
    562     (1,562)               1.41787666E-03
    563     (1,563)               5.96583609E-05
    564     (1,564)               1.88839816E-06
    565     (1,565)               2.12884022E-06
    566     (1,566)               1.15310951E-06
    567     (1,567)               1.10804614E-06
    568     (1,568)               1.48727983E-05
    569     (1,569)               2.67479015E-06
    570     (1,570)               2.90484979E-05
    571     (1,571)               1.02681666E-05
    572     (1,572)               2.08214327E-04
    573     (1,573)               2.73593569E-06
    574     (1,574)               9.96797600E-06
    575     (1,575)               1.72972333E-05
    576     (1,576)               1.18433241E-06
    577     (1,577)               1.22971143E-06
    578     (1,578)               1.98403706E-05
    579     (1,579)               1.22980367E-06
    580     (1,580)               1.93717360E-05
    581     (1,581)               9.93774993E-04
    582     (1,582)               1.73076641E-05
    583     (1,583)               1.78595718E-03
    584     (1,584)               6.32014359E-04
    585     (1,585)               8.53621460E-06
    586     (1,586)               8.77733774E-06
    587     (1,587)               1.56840119E-03
    588     (1,588)               1.56430059E-03
    589     (1,589)               5.89309796E-06
    590     (1,590)               3.33503820E-04
    591     (1,591)               1.63763558E-06
    592     (1,592)               2.44645180E-06
    593     (1,593)               7.92040973E-04
    594     (1,594)               1.59459336E-05
    595     (1,595)               3.64268919E-04
    596     (1,596)               1.24090495E-06
    597     (1,597)               1.62162062E-04
    598     (1,598)               5.31823681E-03
    599     (1,599)               9.97578464E-02
    600     (1,600)               8.79229209E-04
    601     (1,601)               1.24087265E-06
    602     (1,602)               8.54204967E-02
    603     (1,603)               1.89408704E-05
    604     (1,604)               4.78605526E-04
    605     (1,605)               9.66482317E-06
    606     (1,606)               9.95156220E-06
    607     (1,607)               1.19025090E-06
    608     (1,608)               1.44350841E-05
    609     (1,609)               9.66305330E-06
    610     (1,610)               9.95160352E-06
    611     (1,611)               2.79339667E-04
    612     (1,612)               1.19039548E-06
    613     (1,613)               9.65942805E-06
    614     (1,614)               1.14708899E-06
    615     (1,615)               1.62251083E-04
    616     (1,616)               1.19080044E-06
    617     (1,617)               1.68019635E-05
    618     (1,618)               1.14752303E-06
    619     (1,619)               1.83736542E-05
    620     (1,620)               1.88580149E-05
    621     (1,621)               1.14054126E-06
    622     (1,622)               2.63270445E-04
    623     (1,623)               2.75375488E-05
    624     (1,624)               5.49513136E-06
    625     (1,625)               1.14674577E-06
    626     (1,626)               1.20192692E-03
    627     (1,627)               8.84459924E-04
    628     (1,628)               0.11142677    
    629     (1,629)               1.08878799E-04
    630     (1,630)               0.0000000     
    631     (1,631)               1.48020301E-05
    632     (1,632)               1.19560421E-03
    633     (1,633)               9.30928018E-06
    634     (1,634)               9.58302915E-06
    635     (1,635)               2.68752525E-06
    636     (1,636)               1.10366449E-06
    637     (1,637)               9.58010250E-06
    638     (1,638)               1.14420899E-06
    639     (1,639)               1.62215331E-05
    640     (1,640)               1.76806479E-05
    641     (1,641)               2.42091967E-06
    642     (1,642)               1.06714496E-06
    643     (1,643)               1.82409532E-05
    644     (1,644)               2.66002592E-05
    645     (1,645)               2.70604061E-06
    646     (1,646)               2.49945554E-06
    647     (1,647)               1.39299637E-05
    648     (1,648)               4.42857315E-06
    649     (1,649)               1.10392320E-06
    650     (1,650)               3.96456022E-04
    651     (1,651)               9.57982047E-06
    652     (1,652)               9.86023741E-06
    653     (1,653)               2.55201303E-06
    654     (1,654)               5.29107718E-06
    655     (1,655)               1.69547475E-05
    656     (1,656)               9.86172296E-06
    657     (1,657)               3.81560924E-06
    658     (1,658)               1.18952824E-06
    659     (1,659)               9.86752585E-06
    660     (1,660)               1.17845771E-06
    661     (1,661)               1.21075624E-05
    662     (1,662)               2.88735881E-05
    663     (1,663)               1.17870955E-06
    664     (1,664)               1.13645539E-06
    665     (1,665)               1.82590093E-05
    666     (1,666)               1.18350389E-05
    667     (1,667)               1.17847054E-06
    668     (1,668)               2.61456750E-06
    669     (1,669)               2.88798107E-05
    670     (1,670)               1.13646636E-06
    671     (1,671)               9.57737640E-06
    672     (1,672)               4.02888963E-06
    673     (1,673)               1.13622234E-06
    674     (1,674)               1.13667764E-06
    675     (1,675)               9.65972627E-06
    676     (1,676)               9.66342712E-06
    677     (1,677)               1.14670556E-06
    678     (1,678)               1.44306221E-05
    679     (1,679)               8.17176419E-06
    680     (1,680)               1.41279480E-04
    681     (1,681)               9.94652194E-06
    682     (1,682)               2.64233738E-06
    683     (1,683)               1.70743272E-05
    684     (1,684)               9.95033697E-06
    685     (1,685)               1.14692390E-06
    686     (1,686)               8.74216173E-04
    687     (1,687)               0.11799143    
    688     (1,688)               6.11218831E-03
    689     (1,689)               3.87813458E-03
    690     (1,690)               0.11711764    
    691     (1,691)               1.14671302E-06
    692     (1,692)               2.05880043E-06
    693     (1,693)               1.14449452E-06
    694     (1,694)               2.41150277E-04
    695     (1,695)               1.18387932E-05
    696     (1,696)               1.21118004E-05
    697     (1,697)               1.17923313E-06
    698     (1,698)               1.13686619E-06
    699     (1,699)               2.77034457E-06
    700     (1,700)               2.88859822E-05
    701     (1,701)               1.12551689E-05
    702     (1,702)               1.13730860E-06
    703     (1,703)               2.03776883E-06
    704     (1,704)               5.73009839E-03
    705     (1,705)               8.94636664E-02
    706     (1,706)               2.80501632E-03
    707     (1,707)               8.54648543E-04
    708     (1,708)               4.37173981E-02
    709     (1,709)               1.96952148E-02
    710     (1,710)               6.92989239E-03
    711     (1,711)               1.85186222E-03
    712     (1,712)               0.23114296    
    713     (1,713)               5.49427262E-06
    714     (1,714)               0.14185079    
    715     (1,715)               0.23389916    
    716     (1,716)               4.49580821E-05
    717     (1,717)               1.21112562E-05
    718     (1,718)               8.06359239E-03
    719     (1,719)               9.58490599E-06
    720     (1,720)               1.78469684E-03
    721     (1,721)               1.89036472E-06
    722     (1,722)               6.87199288E-02
    723     (1,723)               1.46476617E-02
    724     (1,724)               2.42202307E-06
    725     (1,725)               3.44932369E-04
    726     (1,726)               0.22545864    
    727     (1,727)               5.46097650E-04
    728     (1,728)               3.58915467E-06
    729     (1,729)               1.01175381E-03
    730     (1,730)               1.42219100E-03
    731     (1,731)               5.97491548E-03
    732     (1,732)               6.89433676E-04
    733     (1,733)               0.0000000     
    734     (1,734)               9.16140652E-04
    735     (1,735)               8.88245817E-04
    736     (1,736)               1.40677138E-03
    737     (1,737)               2.41900899E-04
    738     (1,738)               8.28161406E-07
    739     (1,739)               9.76235426E-04
    740     (1,740)               1.33293021E-06
    741     (1,741)               1.44696699E-04
    742     (1,742)               1.16715716E-04
    743     (1,743)               1.14512799E-02
    744     (1,744)               1.00202812E-04
    745     (1,745)               0.16070365    
    746     (1,746)               8.45475712E-07
    747     (1,747)               1.45279174E-04
    748     (1,748)               1.39736203E-03
    749     (1,749)               7.40842026E-03
    750     (1,750)               0.0000000     
    751     (1,751)               9.38857914E-02
    752     (1,752)               1.04318588E-03
    753     (1,753)               0.24275771    
    754     (1,754)               1.05131821E-03
    755     (1,755)               8.12271645E-02
    756     (1,756)               9.05059856E-02
    757     (1,757)               7.00063486E-04
    758     (1,758)               0.12173673    
    759     (1,759)               6.77249123E-03
    760     (1,760)               0.0000000     
    761     (1,761)               1.43866122E-03
    762     (1,762)               1.16327849E-03
    763     (1,763)               0.0000000     
    764     (1,764)               0.16042289    
    765     (1,765)               1.96960555E-02
    766     (1,766)               6.78190458E-04
    767     (1,767)               1.19670270E-03
    768     (1,768)               1.01295122E-06
    769     (1,769)               4.69436699E-05
    770     (1,770)               4.25951238E-02
    771     (1,771)               0.0000000     
    772     (1,772)               3.97677965E-03
    773     (1,773)               4.33036038E-03
    774     (1,774)               0.0000000     
    775     (1,775)               1.29107961E-02
    776     (1,776)               6.80961466E-03
    777     (1,777)               1.83029662E-03
    778     (1,778)               1.16356565E-03
    779     (1,779)               7.91471261E-06
    780     (1,780)               4.05370141E-06
    781     (1,781)               1.17094429E-03
    782     (1,782)               1.64452538E-03
    783     (1,783)               0.0000000     
    784     (1,784)               1.17309095E-03
    785     (1,785)               0.0000000     
    786     (1,786)               0.0000000     
    787     (1,787)               1.72534446E-02
    788     (1,788)               6.16794413E-04
    789     (1,789)               7.90553087E-04
    790     (1,790)               0.0000000     
    791     (1,791)               1.06280217E-03
    792     (1,792)               1.22770051E-03
    793     (1,793)               8.28232793E-04
    794     (1,794)               0.0000000     
    795     (1,795)               8.41079067E-04
    796     (1,796)               4.83772681E-04
    797     (1,797)               0.0000000     
    798     (1,798)               7.32923337E-07
    799     (1,799)               5.54345183E-04
    800     (1,800)               7.80574014E-04
    801     (1,801)               5.94758936E-04
    802     (1,802)               1.17840457E-06
    803     (1,803)               7.31975035E-04
    804     (1,804)               8.40863677E-04
    805     (1,805)               0.0000000     
    806     (1,806)               7.92893283E-04
    807     (1,807)               0.0000000     
    808     (1,808)               1.06514308E-03
    809     (1,809)               3.50130363E-03
    810     (1,810)               1.56642292E-03
    811     (1,811)               7.74291554E-02
    812     (1,812)               7.55267753E-04
    813     (1,813)               3.93404748E-03
    814     (1,814)               3.57004960E-06
    815     (1,815)               7.39078558E-03
    816     (1,816)               9.32590543E-05
    817     (1,817)               1.08296144E-03
    818     (1,818)               7.69152536E-04
    819     (1,819)               3.01689516E-03
    820     (1,820)               2.70427663E-02
    821     (1,821)               0.0000000     
    822     (1,822)               5.06660471E-04
    823     (1,823)               9.53708217E-04
    824     (1,824)               1.24183444E-03
    825     (1,825)               1.94480853E-02
    826     (1,826)               1.54173215E-02
    827     (1,827)               7.41959041E-04
    828     (1,828)               0.0000000     
    829     (1,829)               1.12632293E-02
    830     (1,830)               3.83511729E-03
    831     (1,831)               0.0000000     
    832     (1,832)               1.83500922E-02
    833     (1,833)               3.27031307E-02
    834     (1,834)               2.94484038E-02
    835     (1,835)               1.40839991E-02
    836     (1,836)               0.0000000     
    837     (1,837)               6.51686339E-04
    838     (1,838)               3.57712061E-03
    839     (1,839)               5.08416029E-03
    840     (1,840)               2.28518317E-04
    841     (1,841)               6.21689848E-02
    842     (1,842)               9.70816489E-04
    843     (1,843)               0.0000000     
    844     (1,844)               1.93915146E-06
    845     (1,845)               1.20969419E-02
    846     (1,846)               0.0000000     
    847     (1,847)               0.0000000     
    848     (1,848)               4.74809460E-03
    849     (1,849)               1.74199811E-04
    850     (1,850)               0.0000000     
    851     (1,851)               7.54148976E-04
    852     (1,852)               8.94038309E-04
    853     (1,853)               7.64750141E-04
    854     (1,854)               2.63930072E-02
    855     (1,855)               1.06335644E-03
    856     (1,856)               2.21678057E-03
    857     (1,857)               8.90789167E-06
    858     (1,858)               2.36394356E-04
    859     (1,859)               8.96478721E-03
    860     (1,860)               6.84305035E-03
    861     (1,861)               0.0000000     
    862     (1,862)               2.24844179E-02
    863     (1,863)               1.02065527E-03
    864     (1,864)               2.17231332E-02
    865     (1,865)               7.41450113E-04
    866     (1,866)               7.85454343E-04
    867     (1,867)               1.92751892E-03
    868     (1,868)               1.29345477E-03
    869     (1,869)               1.19093507E-03
    870     (1,870)               7.95249650E-04
    871     (1,871)               9.29294251E-04
    872     (1,872)               0.0000000     
    873     (1,873)               2.09617070E-02
    874     (1,874)               0.0000000     
    875     (1,875)               0.0000000     
    876     (1,876)               9.43431862E-04
    877     (1,877)               1.92540776E-02
    878     (1,878)               6.15148517E-04
    879     (1,879)               9.72099551E-04
    880     (1,880)               5.28748404E-03
    881     (1,881)               8.39253786E-02
    882     (1,882)               1.18047523E-02
    883     (1,883)               6.93764999E-04
    884     (1,884)               0.0000000     
    885     (1,885)               0.0000000     
    886     (1,886)               2.89495861E-02
    887     (1,887)               0.0000000     
    888     (1,888)               4.17599827E-02
    889     (1,889)               2.31353173E-02
    890     (1,890)               1.53188261E-02
    891     (1,891)               0.0000000     
    892     (1,892)               1.54144578E-02
    893     (1,893)               3.63993287E-03
    894     (1,894)               5.84766525E-02
    895     (1,895)               6.27694993E-03
    896     (1,896)               9.89113015E-02
    897     (1,897)               0.13613149    
    898     (1,898)               8.78947462E-03
    899     (1,899)               4.12932441E-03
    900     (1,900)               2.30888448E-03
    901     (1,901)               9.11911927E-02
    902     (1,902)               1.02517845E-02
    903     (1,903)               4.85952104E-03
    904     (1,904)               2.59496875E-06
    905     (1,905)               8.94306561E-05
    906     (1,906)               1.76826097E-04
    907     (1,907)               1.26955835E-03
    908     (1,908)               1.02512061E-03
    909     (1,909)               0.0000000     
    910     (1,910)               0.0000000     
    911     (1,911)               1.73849274E-02
    912     (1,912)               0.0000000     
    913     (1,913)               0.0000000     
    914     (1,914)               1.27812918E-03
    915     (1,915)               8.55940956E-04
    916     (1,916)               9.23089939E-04
    917     (1,917)               0.0000000     
    918     (1,918)               1.07449337E-03
    919     (1,919)               0.0000000     
    920     (1,920)               7.53645109E-04
    921     (1,921)               3.55604080E-04
    922     (1,922)               7.55507581E-04
    923     (1,923)               0.0000000     
    924     (1,924)               6.81375515E-04
    925     (1,925)               0.0000000     
    926     (1,926)               2.21024358E-05
    927     (1,927)               2.35570671E-04
    928     (1,928)               0.0000000     
    929     (1,929)               5.63184010E-03
    930     (1,930)               1.30836776E-02
    931     (1,931)               0.0000000     
    932     (1,932)               0.0000000     
    933     (1,933)               0.0000000     
    934     (1,934)               0.0000000     
    935     (1,935)               1.40406181E-04
    936     (1,936)               9.33222733E-05
    937     (1,937)               8.89585727E-05
    938     (1,938)               9.96415470E-04
    939     (1,939)               2.65331883E-04
    940     (1,940)               3.63657105E-04
    941     (1,941)               0.0000000     
    942     (1,942)               9.29601214E-05
    943     (1,943)               1.95057098E-03
    944     (1,944)               2.12597636E-04
    945     (1,945)               9.37421080E-03
    946     (1,946)               2.93637585E-04
    947     (1,947)               0.0000000     
    948     (1,948)               0.0000000     
    949     (1,949)               0.0000000     
    950     (1,950)               4.60388318E-05
    951     (1,951)               5.77375526E-05
    952     (1,952)               8.26513941E-04
    953     (1,953)               1.22033265E-04
    954     (1,954)               0.0000000     
    955     (1,955)               2.10004614E-05
    956     (1,956)               0.0000000     
    957     (1,957)               1.26783050E-03
    958     (1,958)               3.08132545E-04
    959     (1,959)               1.74969423E-05
    960     (1,960)               8.21338335E-04
    961     (1,961)               1.33820646E-03
    962     (1,962)               0.0000000     
    963     (1,963)               6.10253031E-04
    964     (1,964)               8.28938651E-04
    965     (1,965)               0.0000000     
    966     (1,966)               0.0000000     
    967     (1,967)               7.18388191E-05
    968     (1,968)               5.27058267E-04
    969     (1,969)               6.64257189E-04
    970     (1,970)               4.80784757E-05
    971     (1,971)               9.94171978E-04
    972     (1,972)               1.20812696E-03
    973     (1,973)               1.51300098E-06
    974     (1,974)               2.89332039E-04
    975     (1,975)               2.01278426E-04
    976     (1,976)               9.71993940E-04
    977     (1,977)               1.04943748E-03
    978     (1,978)               5.98351372E-07
    979     (1,979)               0.0000000     
    980     (1,980)               0.0000000     
    981     (1,981)               4.79377276E-04
    982     (1,982)               0.0000000     
    983     (1,983)               8.13905474E-04
    984     (1,984)               0.0000000     
    985     (1,985)               7.72793999E-04
    986     (1,986)               8.27764922E-04
    987     (1,987)               0.0000000     
    988     (1,988)               5.30951910E-04
    989     (1,989)               0.0000000     
    990     (1,990)               4.46989182E-04
    991     (1,991)               0.0000000     
    992     (1,992)               1.22506564E-03
    993     (1,993)               4.19587740E-03
    994     (1,994)               0.0000000     
    995     (1,995)               4.85705790E-04
    996     (1,996)               8.07049000E-04
    997     (1,997)               9.25937624E-03
    998     (1,998)               1.64955178E-02
    999     (1,999)               1.58150812E-02
    1000    (1,1000)              0.0000000     
    1001    (1,1001)              0.0000000     
    1002    (1,1002)              9.32711170E-04
    1003    (1,1003)              1.24619597E-03
    1004    (1,1004)              4.25439051E-04
    1005    (1,1005)              4.98986950E-04
    1006    (1,1006)              0.0000000     
    1007    (1,1007)              0.0000000     
    1008    (1,1008)              0.0000000     
    1009    (1,1009)              0.0000000     
    1010    (1,1010)              0.0000000     
    1011    (1,1011)              0.0000000     
    1012    (1,1012)              1.13606585E-03
    1013    (1,1013)              8.17864509E-03
    1014    (1,1014)              9.86461185E-05
    1015    (1,1015)              6.51801826E-03
    1016    (1,1016)              1.46980926E-02
    1017    (1,1017)              5.90651144E-03
    1018    (1,1018)              0.0000000     
    1019    (1,1019)              0.0000000     
    1020    (1,1020)              1.40205487E-02
    1021    (1,1021)              7.07433903E-03
    1022    (1,1022)              0.0000000     
    1023    (1,1023)              2.75497411E-03
    1024    (1,1024)              0.0000000     
    1025    (1,1025)              0.0000000     
    1026    (1,1026)              0.0000000     
    1027    (1,1027)              0.0000000     
    1028    (1,1028)              0.0000000     
    1029    (1,1029)              0.0000000     
    1030    (1,1030)              1.61519089E-02
    1031    (1,1031)              0.12638719    
    1032    (1,1032)              0.0000000     
    1033    (1,1033)              3.78039728E-03
    1034    (1,1034)              0.0000000     
    1035    (1,1035)              2.02465290E-02
    1036    (1,1036)              8.52023731E-03
    1037    (1,1037)              6.08954378E-03
    1038    (1,1038)              0.0000000     
    1039    (1,1039)              4.21100281E-04
    1040    (1,1040)              1.44554755E-03
    1041    (1,1041)              0.0000000     
    1042    (1,1042)              7.39311576E-04
    1043    (1,1043)              7.29226077E-05
    1044    (1,1044)              9.29023572E-04
    1045    (1,1045)              7.85674904E-04
    1046    (1,1046)              0.0000000     
    1047    (1,1047)              1.41739464E-03
    1048    (1,1048)              4.12894168E-05
    1049    (1,1049)              1.44653405E-03
    1050    (1,1050)              5.60819223E-04
    1051    (1,1051)              9.34810622E-04
    1052    (1,1052)              0.0000000     
    1053    (1,1053)              6.54000844E-04
    1054    (1,1054)              9.37272246E-04
    1055    (1,1055)              5.28455225E-04
    1056    (1,1056)              2.30150421E-04
    1057    (1,1057)              0.0000000     
    1058    (1,1058)              9.93393787E-04
    1059    (1,1059)              6.82673828E-04
    1060    (1,1060)              0.0000000     
    1061    (1,1061)              3.23196428E-04
    1062    (1,1062)              1.07200703E-03
    1063    (1,1063)              4.67522500E-04
    1064    (1,1064)              5.97507303E-04
    1065    (1,1065)              0.0000000     
    1066    (1,1066)              5.61252923E-04
    1067    (1,1067)              6.43894354E-04
    1068    (1,1068)              2.40074253E-04
    1069    (1,1069)              0.0000000     
    1070    (1,1070)              9.64534612E-04
    1071    (1,1071)              2.92462031E-07
    1072    (1,1072)              9.28105471E-04
    1073    (1,1073)              3.37117668E-06
    1074    (1,1074)              2.39570668E-04
    1075    (1,1075)              7.94408663E-04
    1076    (1,1076)              1.02721738E-02
    1077    (1,1077)              0.0000000     
    1078    (1,1078)              0.0000000     
    1079    (1,1079)              0.0000000     
    1080    (1,1080)              1.78982705E-04
    1081    (1,1081)              4.89879471E-04
    1082    (1,1082)              2.39705300E-04
    1083    (1,1083)              0.0000000     
    1084    (1,1084)              1.85231222E-03
    1085    (1,1085)              9.58812941E-03
    1086    (1,1086)              1.16633904E-03
    1087    (1,1087)              1.92247802E-02
    1088    (1,1088)              1.56306237E-04
    1089    (1,1089)              0.0000000     
    1090    (1,1090)              7.24005633E-02
    1091    (1,1091)              9.30608490E-02
    1092    (1,1092)              9.25026201E-03
    1093    (1,1093)              5.30312415E-03
    1094    (1,1094)              4.04013469E-02
    1095    (1,1095)              4.41952464E-03
    1096    (1,1096)              0.0000000     
    1097    (1,1097)              6.05038540E-04
    1098    (1,1098)              6.06524236E-04
    1099    (1,1099)              0.0000000     
    1100    (1,1100)              2.48688604E-05
    1101    (1,1101)              0.0000000     
    1102    (1,1102)              6.96755237E-04
    1103    (1,1103)              2.39066464E-02
    1104    (1,1104)              0.0000000     
    1105    (1,1105)              0.0000000     
    1106    (1,1106)              4.92111666E-04
    1107    (1,1107)              4.24604941E-02
    1108    (1,1108)              4.84373989E-02
    1109    (1,1109)              0.0000000     
    1110    (1,1110)              4.49038268E-03
    1111    (1,1111)              4.53648927E-03
    1112    (1,1112)              5.67004541E-02
    1113    (1,1113)              1.49879082E-02
    1114    (1,1114)              1.51342221E-02
    1115    (1,1115)              6.29940922E-03
    1116    (1,1116)              0.0000000     
    1117    (1,1117)              2.95251651E-03
    1118    (1,1118)              2.34684352E-03
    1119    (1,1119)              0.0000000     
    1120    (1,1120)              0.0000000     
    1121    (1,1121)              9.11017439E-03
    1122    (1,1122)              1.95491447E-02
    1123    (1,1123)              0.0000000     
    1124    (1,1124)              0.0000000     
    1125    (1,1125)              3.88228982E-03
    1126    (1,1126)              0.0000000     
    1127    (1,1127)              1.57140176E-02
    1128    (1,1128)              0.0000000     
    1129    (1,1129)              8.49733613E-03
    1130    (1,1130)              0.0000000     
    1131    (1,1131)              0.0000000     
    1132    (1,1132)              6.41000023E-04
    1133    (1,1133)              5.65313282E-04
    1134    (1,1134)              3.12647276E-04
    1135    (1,1135)              1.92054403E-04
    1136    (1,1136)              1.31030001E-03
    1137    (1,1137)              6.88369836E-04
    1138    (1,1138)              3.66384743E-04
    1139    (1,1139)              1.46888536E-03
    1140    (1,1140)              3.59995453E-04
    1141    (1,1141)              7.23152191E-05
    1142    (1,1142)              9.42465100E-04
    1143    (1,1143)              7.98130900E-07
    1144    (1,1144)              6.70201620E-04
    1145    (1,1145)              2.29481577E-05
    1146    (1,1146)              0.0000000     
    1147    (1,1147)              2.49339688E-04
    1148    (1,1148)              1.27998499E-03
    1149    (1,1149)              2.80515451E-04
    1150    (1,1150)              8.60887400E-04
    1151    (1,1151)              9.04740105E-05
    1152    (1,1152)              4.45645996E-04
    1153    (1,1153)              4.45343076E-05
    1154    (1,1154)              1.00013326E-03
    1155    (1,1155)              8.75711531E-04
    1156    (1,1156)              4.82676932E-04
    1157    (1,1157)              0.0000000     
    1158    (1,1158)              2.21137228E-05
    1159    (1,1159)              0.0000000     
    1160    (1,1160)              8.86636064E-04
    1161    (1,1161)              2.28021863E-05
    1162    (1,1162)              2.38325340E-05
    1163    (1,1163)              2.21175475E-05
    1164    (1,1164)              6.03790469E-04
    1165    (1,1165)              3.90079719E-06
    1166    (1,1166)              5.86108031E-04
    1167    (1,1167)              4.31531028E-04
    1168    (1,1168)              0.0000000     
    1169    (1,1169)              1.38785627E-03
    1170    (1,1170)              0.0000000     
    1171    (1,1171)              1.98938145E-05
    1172    (1,1172)              8.43642666E-06
    1173    (1,1173)              0.0000000     
    1174    (1,1174)              3.89939771E-04
    1175    (1,1175)              5.46768066E-03
    1176    (1,1176)              1.28856874E-07
    1177    (1,1177)              0.0000000     
    1178    (1,1178)              7.22503141E-03
    1179    (1,1179)              0.0000000     
    1180    (1,1180)              3.56236334E-03
    1181    (1,1181)              8.22069988E-03
    1182    (1,1182)              1.17145835E-02
    1183    (1,1183)              1.01182544E-02
    1184    (1,1184)              9.63233923E-03
    1185    (1,1185)              1.34180414E-04
    1186    (1,1186)              9.50919649E-07
    1187    (1,1187)              4.22208086E-06
    1188    (1,1188)              1.22759391E-03
    1189    (1,1189)              0.0000000     
    1190    (1,1190)              0.0000000     
    1191    (1,1191)              0.0000000     
    1192    (1,1192)              0.0000000     
    1193    (1,1193)              0.0000000     
    1194    (1,1194)              6.49352697E-04
    1195    (1,1195)              0.0000000     
    1196    (1,1196)              0.0000000     
    1197    (1,1197)              0.0000000     
    1198    (1,1198)              1.83038915E-02
    1199    (1,1199)              2.25500637E-02
    1200    (1,1200)              0.0000000     
    1201    (1,1201)              0.0000000     
    1202    (1,1202)              1.25093694E-02
    1203    (1,1203)              2.87944864E-02
    1204    (1,1204)              0.0000000     
    1205    (1,1205)              1.44935401E-02
    1206    (1,1206)              0.0000000     
    1207    (1,1207)              0.0000000     
    1208    (1,1208)              5.87353313E-03
    1209    (1,1209)              9.13772019E-03
    1210    (1,1210)              0.0000000     
    1211    (1,1211)              9.22655301E-03
    1212    (1,1212)              6.22338727E-03
    1213    (1,1213)              0.0000000     
    1214    (1,1214)              0.0000000     
    1215    (1,1215)              4.36219132E-03
    1216    (1,1216)              0.0000000     
    1217    (1,1217)              1.84824850E-02
    1218    (1,1218)              0.0000000     
    1219    (1,1219)              7.34205259E-03
    1220    (1,1220)              0.0000000     
    1221    (1,1221)              3.81654687E-04
    1222    (1,1222)              3.61797558E-05
    1223    (1,1223)              0.0000000     
    1224    (1,1224)              1.67814610E-05
    1225    (1,1225)              0.0000000     
    1226    (1,1226)              8.89555216E-07
    1227    (1,1227)              1.74992812E-02
    1228    (1,1228)              5.69399216E-05
    1229    (1,1229)              2.52350954E-04
    1230    (1,1230)              1.46109457E-04
    1231    (1,1231)              5.06191551E-07
    1232    (1,1232)              0.0000000     
    1233    (1,1233)              0.0000000     
    1234    (1,1234)              8.61185513E-05
    1235    (1,1235)              5.44493579E-04
    1236    (1,1236)              1.55881213E-05
    1237    (1,1237)              6.54842876E-04
    1238    (1,1238)              5.33302075E-04
    1239    (1,1239)              0.0000000     
    1240    (1,1240)              8.78701146E-06
    1241    (1,1241)              0.0000000     
    1242    (1,1242)              8.93126877E-03
    1243    (1,1243)              1.42108101E-02
    1244    (1,1244)              0.0000000     
    1245    (1,1245)              1.67684654E-02
    1246    (1,1246)              8.37831689E-03
    1247    (1,1247)              4.80846067E-03
    1248    (1,1248)              0.0000000     
    1249    (1,1249)              7.44170589E-03
    1250    (1,1250)              1.08663157E-02
    1251    (1,1251)              0.0000000     
    1252    (1,1252)              8.23655222E-03
    1253    (1,1253)              0.0000000     
    1254    (1,1254)              0.0000000     
    1255    (1,1255)              0.0000000     
    1256    (1,1256)              0.0000000     
    1257    (1,1257)              6.96474265E-03
    1258    (1,1258)              0.0000000     
    1259    (1,1259)              8.16294337E-03
    1260    (1,1260)              0.0000000     
    1261    (1,1261)              8.23655938E-03
    1262    (1,1262)              0.0000000     
    1263    (1,1263)              9.82757051E-03
    1264    (1,1264)              0.0000000     
    1265    (1,1265)              1.25555486E-02
    1266    (1,1266)              6.25659608E-07
    1267    (1,1267)              0.18608664    
    1268    (1,1268)              5.19473984E-04
    1269    (1,1269)              2.96456723E-05
    1270    (1,1270)              1.55334469E-04
    1271    (1,1271)              4.89840658E-04
    1272    (1,1272)              3.66551458E-04
    1273    (1,1273)              5.23984756E-04
    1274    (1,1274)              0.0000000     
    1275    (1,1275)              5.52873996E-04
    1276    (1,1276)              2.61776945E-05
    1277    (1,1277)              3.43866856E-05
    1278    (1,1278)              2.96260711E-04
    1279    (1,1279)              7.56050462E-06
    1280    (1,1280)              6.78957756E-04
    1281    (1,1281)              1.19412938E-03
    1282    (1,1282)              0.0000000     
    1283    (1,1283)              4.18502144E-04
    1284    (1,1284)              3.30306656E-05
    1285    (1,1285)              0.0000000     
    1286    (1,1286)              1.28047208E-03
    1287    (1,1287)              0.0000000     
    1288    (1,1288)              4.83468701E-04
    1289    (1,1289)              1.19760264E-03
    1290    (1,1290)              0.0000000     
    1291    (1,1291)              1.28976109E-03
    1292    (1,1292)              1.10727352E-03
    1293    (1,1293)              5.61662569E-03
    1294    (1,1294)              3.90518365E-03
    1295    (1,1295)              0.0000000     
    1296    (1,1296)              0.0000000     
    1297    (1,1297)              7.88722296E-04
    1298    (1,1298)              0.0000000     
    1299    (1,1299)              9.16221772E-04
    1300    (1,1300)              8.96714437E-04
    1301    (1,1301)              0.0000000     
    1302    (1,1302)              1.98268932E-04
    1303    (1,1303)              4.54898511E-04
    1304    (1,1304)              9.04437526E-04
    1305    (1,1305)              3.35976799E-04
    1306    (1,1306)              0.0000000     
    1307    (1,1307)              7.87479928E-04
    1308    (1,1308)              6.99087917E-04
    1309    (1,1309)              0.0000000     
    1310    (1,1310)              2.87591546E-04
    1311    (1,1311)              0.0000000     
    1312    (1,1312)              1.47064899E-03
    1313    (1,1313)              0.0000000     
    1314    (1,1314)              0.0000000     
    1315    (1,1315)              1.02390187E-04
    1316    (1,1316)              6.40532329E-04
    1317    (1,1317)              1.30003925E-03
    1318    (1,1318)              1.27821685E-05
    1319    (1,1319)              0.0000000     
    1320    (1,1320)              4.42626824E-04
    1321    (1,1321)              6.72038344E-06
    1322    (1,1322)              7.95304909E-04
    1323    (1,1323)              0.0000000     
    1324    (1,1324)              2.60420749E-05
    1325    (1,1325)              2.01984927E-05
    1326    (1,1326)              6.46752418E-04
    1327    (1,1327)              1.39889171E-04
    1328    (1,1328)              1.27105837E-03
    1329    (1,1329)              2.45521471E-04
    1330    (1,1330)              6.03346409E-05
    1331    (1,1331)              4.88683263E-05
    1332    (1,1332)              6.02989052E-04
    1333    (1,1333)              9.88239742E-05
    1334    (1,1334)              3.73884947E-05
    1335    (1,1335)              8.76952387E-04
    1336    (1,1336)              0.0000000     
    1337    (1,1337)              1.04624700E-04
    1338    (1,1338)              8.34614474E-05
    1339    (1,1339)              6.03731837E-06
    1340    (1,1340)              1.65820928E-04
    1341    (1,1341)              6.03017669E-05
    1342    (1,1342)              2.89265796E-05
    1343    (1,1343)              2.02631521E-04
    1344    (1,1344)              1.13076855E-04
    1345    (1,1345)              2.04201452E-04
    1346    (1,1346)              0.0000000     
    1347    (1,1347)              2.99886734E-05
    1348    (1,1348)              1.59310687E-05
    1349    (1,1349)              3.03283027E-05
    1350    (1,1350)              7.96631363E-05
    1351    (1,1351)              4.97245823E-05
    1352    (1,1352)              6.24039775E-04
    1353    (1,1353)              0.0000000     
    1354    (1,1354)              8.71957104E-04
    1355    (1,1355)              1.25142841E-03
    1356    (1,1356)              3.78992580E-04
    1357    (1,1357)              3.62207852E-04
    1358    (1,1358)              6.54504948E-04
    1359    (1,1359)              0.0000000     
    1360    (1,1360)              1.56054396E-02
    1361    (1,1361)              0.0000000     
    1362    (1,1362)              1.54495288E-02
    1363    (1,1363)              1.08242208E-02
    1364    (1,1364)              0.0000000     
    1365    (1,1365)              5.92080814E-03
    1366    (1,1366)              0.0000000     
    1367    (1,1367)              3.94649552E-04
    1368    (1,1368)              0.0000000     
    1369    (1,1369)              9.56966419E-04
    1370    (1,1370)              7.07523942E-04
    1371    (1,1371)              0.0000000     
    1372    (1,1372)              4.56740298E-04
    1373    (1,1373)              0.0000000     
    1374    (1,1374)              5.10192686E-04
    1375    (1,1375)              0.0000000     
    1376    (1,1376)              0.0000000     
    1377    (1,1377)              6.53915887E-03
    1378    (1,1378)              0.0000000     
    1379    (1,1379)              0.0000000     
    1380    (1,1380)              4.40577023E-03
    1381    (1,1381)              6.20790982E-03
    1382    (1,1382)              0.0000000     
    1383    (1,1383)              2.58920290E-02
    1384    (1,1384)              1.75986652E-02
    1385    (1,1385)              0.0000000     
    1386    (1,1386)              0.0000000     
    1387    (1,1387)              6.59076312E-03
    1388    (1,1388)              1.91136177E-02
    1389    (1,1389)              0.0000000     
    1390    (1,1390)              3.90414768E-03
    1391    (1,1391)              2.27921434E-02
    1392    (1,1392)              2.52436591E-04
    1393    (1,1393)              0.0000000     
    1394    (1,1394)              1.62324158E-02
    1395    (1,1395)              0.0000000     
    1396    (1,1396)              0.0000000     
    1397    (1,1397)              3.26814037E-03
    1398    (1,1398)              0.0000000     
    1399    (1,1399)              0.0000000     
    1400    (1,1400)              2.22494487E-02
    1401    (1,1401)              4.03819234E-03
    1402    (1,1402)              0.0000000     
    1403    (1,1403)              3.62464363E-04
    1404    (1,1404)              8.52604384E-06
    1405    (1,1405)              6.57929262E-04
    1406    (1,1406)              3.75251435E-04
    1407    (1,1407)              8.92013393E-04
    1408    (1,1408)              4.89147353E-04
    1409    (1,1409)              2.47433281E-04
    1410    (1,1410)              0.0000000     
    1411    (1,1411)              1.04224899E-03
    1412    (1,1412)              0.0000000     
    1413    (1,1413)              1.05380878E-03
    1414    (1,1414)              1.52276779E-04
    1415    (1,1415)              3.71057576E-04
    1416    (1,1416)              1.01520148E-03
    1417    (1,1417)              2.56237536E-05
    1418    (1,1418)              0.0000000     
    1419    (1,1419)              0.0000000     
    1420    (1,1420)              0.0000000     
    1421    (1,1421)              9.90220138E-04
    1422    (1,1422)              1.65591641E-04
    1423    (1,1423)              2.59435993E-06
    1424    (1,1424)              8.77757690E-04
    1425    (1,1425)              1.68100725E-03
    1426    (1,1426)              4.03172703E-04
    1427    (1,1427)              0.0000000     
    1428    (1,1428)              0.0000000     
    1429    (1,1429)              4.46267721E-04
    1430    (1,1430)              4.88848651E-04
    1431    (1,1431)              7.48306938E-04
    1432    (1,1432)              1.38714850E-03
    1433    (1,1433)              0.0000000     
    1434    (1,1434)              2.47017832E-06
    1435    (1,1435)              0.0000000     
    1436    (1,1436)              7.33887143E-04
    1437    (1,1437)              1.20267137E-03
    1438    (1,1438)              1.82536289E-04
    1439    (1,1439)              4.83267616E-04
    1440    (1,1440)              2.48631715E-05
    1441    (1,1441)              1.35330176E-03
    1442    (1,1442)              0.0000000     
    1443    (1,1443)              1.05365038E-03
    1444    (1,1444)              0.0000000     
    1445    (1,1445)              1.19609859E-03
    1446    (1,1446)              1.49482139E-03
    1447    (1,1447)              0.0000000     
    1448    (1,1448)              6.74091167E-04
    1449    (1,1449)              1.56185277E-02
    1450    (1,1450)              1.10417891E-03
    1451    (1,1451)              1.40054538E-02
    1452    (1,1452)              6.56546089E-04
[...]
   12462    (1,12462)             0.14812197    
   12463    (1,12463)             0.34702684    
   12464    (1,12464)             0.28805038    
   12465    (1,12465)             0.24966089    
   12466    (1,12466)             0.19086889    
   12467    (1,12467)             0.20825129    
   12468    (1,12468)             0.17245611    
   12469    (1,12469)             0.22375584    
   12470    (1,12470)             0.21100700    
   12471    (1,12471)             0.22163984    
   12472    (1,12472)             0.22610644    
   12473    (1,12473)             0.27070800    
   12474    (1,12474)             0.20377642    
   12475    (1,12475)             0.18451045    
   12476    (1,12476)             0.19720652    
   12477    (1,12477)             0.28153342    
   12478    (1,12478)             0.18570006    
   12479    (1,12479)             0.21099904    
   12480    (1,12480)             0.15600845    
   12481    (1,12481)             0.20645395    
   12482    (1,12482)             0.23078475    
   12483    (1,12483)             0.28467613    
   12484    (1,12484)             0.27025068    
   12485    (1,12485)             0.22221601    
   12486    (1,12486)             0.27540097    
   12487    (1,12487)             0.22345510    
   12488    (1,12488)             0.23154990    
   12489    (1,12489)             0.17881944    
   12490    (1,12490)             0.23768658    
   12491    (1,12491)             0.25838760    
   12492    (1,12492)             0.16373359    
   12493    (1,12493)             0.19138287    
   12494    (1,12494)             0.15248089    
   12495    (1,12495)             0.18068438    
   12496    (1,12496)             0.18651529    
   12497    (1,12497)             0.18108325    
   12498    (1,12498)             0.23165180    
   12499    (1,12499)             0.17678752    
   12500    (1,12500)             0.23531098    
   12501    (1,12501)             0.27300117    
   12502    (1,12502)             0.29221143    
   12503    (1,12503)             0.13676397    
   12504    (1,12504)             0.17898274    
   12505    (1,12505)             0.29689002    
   12506    (1,12506)             0.21279143    
   12507    (1,12507)             0.21113860    
   12508    (1,12508)             0.23084889    
   12509    (1,12509)             0.27405289    
   12510    (1,12510)             0.19935155    
   12511    (1,12511)             0.24515043    
   12512    (1,12512)             0.28906284    
   12513    (1,12513)             0.24278061    
   12514    (1,12514)             0.28152461    
   12515    (1,12515)             0.19022266    
   12516    (1,12516)             0.30179967    
   12517    (1,12517)             0.20312029    
   12518    (1,12518)             0.19352804    
   12519    (1,12519)             0.26149107    
   12520    (1,12520)             0.20623447    
   12521    (1,12521)             0.24411997    
   12522    (1,12522)             0.18088838    
   12523    (1,12523)             0.25463920    
   12524    (1,12524)             0.17659511    
   12525    (1,12525)             0.15661056    
   12526    (1,12526)             0.26832943    
   12527    (1,12527)             0.21720773    
   12528    (1,12528)             0.26897416    
   12529    (1,12529)             0.22716255    
   12530    (1,12530)             0.20391685    
   12531    (1,12531)             0.24225479    
   12532    (1,12532)             0.18796033    
   12533    (1,12533)             0.22701376    
   12534    (1,12534)             0.22224021    
   12535    (1,12535)             0.25052103    
   12536    (1,12536)             0.15720444    
   12537    (1,12537)             0.17139073    
   12538    (1,12538)             0.20666440    
   12539    (1,12539)             0.20501522    
   12540    (1,12540)             0.15854023    
   12541    (1,12541)             0.21127857    
   12542    (1,12542)             0.20158194    
   12543    (1,12543)             0.23775587    
   12544    (1,12544)             0.18483748    
   12545    (1,12545)             0.19892520    
   12546    (1,12546)             0.15485935    
   12547    (1,12547)             0.21039204    
   12548    (1,12548)             0.23608288    
   12549    (1,12549)             0.24107539    
   12550    (1,12550)             0.19472362    
   12551    (1,12551)             0.28029647    
   12552    (1,12552)             0.20583204    
   12553    (1,12553)             0.23181838    
   12554    (1,12554)             0.19596501    
   12555    (1,12555)             0.13144703    
   12556    (1,12556)             0.15489442    
   12557    (1,12557)             0.24042101    
   12558    (1,12558)             0.23189550    
   12559    (1,12559)             0.22322255    
   12560    (1,12560)             0.26576289    
   12561    (1,12561)             0.19986872    
   12562    (1,12562)             0.28654076    
   12563    (1,12563)             0.14654332    
   12564    (1,12564)             0.23814857    
   12565    (1,12565)             0.26092324    
   12566    (1,12566)             0.17723977    
   12567    (1,12567)             0.17878261    
   12568    (1,12568)             0.32215259    
   12569    (1,12569)             0.22661809    
   12570    (1,12570)             0.24584822    
   12571    (1,12571)             0.18451502    
   12572    (1,12572)             0.16134549    
   12573    (1,12573)             0.13827961    
   12574    (1,12574)             0.20113860    
   12575    (1,12575)             0.25854621    
   12576    (1,12576)             0.21670074    
   12577    (1,12577)             0.14310488    
   12578    (1,12578)             0.12773971    
   12579    (1,12579)             0.13721994    
   12580    (1,12580)             0.18032805    
   12581    (1,12581)             0.19519248    
   12582    (1,12582)             0.23061407    
   12583    (1,12583)             0.19452201    
   12584    (1,12584)             0.28897069    
   12585    (1,12585)             0.26450048    
   12586    (1,12586)             0.18793846    
   12587    (1,12587)             0.20019905    
   12588    (1,12588)             0.20574165    
   12589    (1,12589)             0.18415505    
   12590    (1,12590)             0.17538624    
   12591    (1,12591)             0.13945593    
   12592    (1,12592)             0.14679032    
   12593    (1,12593)             0.28902536    
   12594    (1,12594)             0.31368302    
   12595    (1,12595)             0.21847495    
   12596    (1,12596)             0.31343024    
   12597    (1,12597)             0.16985124    
   12598    (1,12598)             0.19039208    
   12599    (1,12599)             0.17299725    
   12600    (1,12600)             0.15294956    
   12601    (1,12601)             0.28068271    
   12602    (1,12602)             0.14874396    
   12603    (1,12603)             0.15993482    
   12604    (1,12604)             0.13738113    
   12605    (1,12605)             0.17396882    
   12606    (1,12606)             0.20985473    
   12607    (1,12607)             0.15930035    
   12608    (1,12608)             0.24303663    
   12609    (1,12609)             0.25289006    
   12610    (1,12610)             0.28218313    
   12611    (1,12611)             0.15356351    
   12612    (1,12612)             0.15632598    
   12613    (1,12613)             0.18861347    
   12614    (1,12614)             0.14306446    
   12615    (1,12615)             0.19685864    
   12616    (1,12616)             0.17788099    
   12617    (1,12617)             0.15719638    
   12618    (1,12618)             0.18713684    
   12619    (1,12619)             0.14564517    
   12620    (1,12620)             0.23488878    
   12621    (1,12621)             0.17093120    
   12622    (1,12622)             0.21286834    
   12623    (1,12623)             0.22792737    
   12624    (1,12624)             0.16537628    
   12625    (1,12625)             0.22632689    
   12626    (1,12626)             0.19381518    
   12627    (1,12627)             0.14789342    
   12628    (1,12628)             0.11869140    
   12629    (1,12629)             0.23882613    
   12630    (1,12630)             0.15187951    
   12631    (1,12631)             0.11832018    
   12632    (1,12632)             0.14700760    
   12633    (1,12633)             0.17933197    
   12634    (1,12634)             0.21109679    
   12635    (1,12635)             0.17726620    
   12636    (1,12636)             0.18544548    
   12637    (1,12637)             0.26253821    
   12638    (1,12638)             0.12495771    
   12639    (1,12639)             0.16941430    
   12640    (1,12640)             0.23471578    
   12641    (1,12641)             0.19706861    
   12642    (1,12642)             0.15683233    
   12643    (1,12643)             0.23863347    
   12644    (1,12644)             0.15751498    
   12645    (1,12645)             0.15569098    
   12646    (1,12646)             0.20937505    
   12647    (1,12647)             0.21977169    
   12648    (1,12648)             0.18464724    
   12649    (1,12649)             0.23601720    
   12650    (1,12650)             0.27492071    
   12651    (1,12651)             0.13156293    
   12652    (1,12652)             0.11093482    
   12653    (1,12653)             0.16810203    
   12654    (1,12654)             0.11257914    
   12655    (1,12655)             0.17791077    
   12656    (1,12656)             0.24064686    
   12657    (1,12657)             0.13147972    
   12658    (1,12658)             0.14667036    
   12659    (1,12659)             0.11588149    
   12660    (1,12660)             0.13238516    
   12661    (1,12661)             0.16781395    
   12662    (1,12662)             0.20907299    
   12663    (1,12663)             0.14756876    
   12664    (1,12664)             0.11888994    
   12665    (1,12665)             0.27252420    
   12666    (1,12666)             0.15276716    
   12667    (1,12667)             0.14409270    
   12668    (1,12668)             0.14676085    
   12669    (1,12669)             0.13659264    
   12670    (1,12670)             0.16751292    
   12671    (1,12671)             0.13541704    
   12672    (1,12672)             0.19168072    
   12673    (1,12673)             0.17664656    
   12674    (1,12674)             0.15776680    
   12675    (1,12675)             0.29363151    
   12676    (1,12676)             0.26192588    
   12677    (1,12677)             0.15823909    
   12678    (1,12678)             0.15709981    
   12679    (1,12679)             0.18828586    
   12680    (1,12680)             0.13819061    
   12681    (1,12681)             0.31181803    
   12682    (1,12682)             0.14964725    
   12683    (1,12683)             0.24924368    
   12684    (1,12684)             0.13325112    
   12685    (1,12685)             0.14189957    
   12686    (1,12686)             0.12757010    
   12687    (1,12687)             0.20912180    
   12688    (1,12688)             0.13976720    
   12689    (1,12689)             0.13154622    
   12690    (1,12690)             0.12336182    
   12691    (1,12691)             0.17952495    
   12692    (1,12692)             0.19119107    
   12693    (1,12693)             0.16556108    
   12694    (1,12694)             0.24079389    
   12695    (1,12695)             0.19349622    
   12696    (1,12696)             0.19494250    
   12697    (1,12697)             0.17933830    
   12698    (1,12698)             0.27930041    
   12699    (1,12699)             0.17193941    
   12700    (1,12700)             0.23151081    
   12701    (1,12701)             0.20659592    
   12702    (1,12702)             0.18104566    
   12703    (1,12703)             0.24846939    
   12704    (1,12704)             0.26280475    
   12705    (1,12705)             0.18643360    
   12706    (1,12706)             0.18513865    
   12707    (1,12707)             0.19598435    
   12708    (1,12708)             0.36420706    
   12709    (1,12709)             0.16952486    
   12710    (1,12710)             0.17749234    
   12711    (1,12711)             0.19187743    
   12712    (1,12712)             0.17428845    
   12713    (1,12713)             0.16001972    
   12714    (1,12714)             0.21974666    
   12715    (1,12715)             0.26215318    
   12716    (1,12716)             0.17832226    
   12717    (1,12717)             0.27424259    
   12718    (1,12718)             0.17737118    
   12719    (1,12719)             0.24594030    
   12720    (1,12720)             0.21779212    
   12721    (1,12721)             0.19241936    
   12722    (1,12722)             0.24783513    
   12723    (1,12723)             0.33209011    
   12724    (1,12724)             0.30060060    
   12725    (1,12725)             0.29748241    
   12726    (1,12726)             0.17420126    
   12727    (1,12727)             0.28093087    
   12728    (1,12728)             0.27877935    
   12729    (1,12729)             0.17616036    
   12730    (1,12730)             0.13480338    
   12731    (1,12731)             0.18398269    
   12732    (1,12732)             0.27676350    
   12733    (1,12733)             0.14546584    
   12734    (1,12734)             0.18574317    
   12735    (1,12735)             0.25205795    
   12736    (1,12736)             0.17140278    
   12737    (1,12737)             0.23203243    
   12738    (1,12738)             0.17472482    
   12739    (1,12739)             0.18450591    
   12740    (1,12740)             0.25617018    
   12741    (1,12741)             0.22980617    
   12742    (1,12742)             0.20646582    
   12743    (1,12743)             0.21844932    
   12744    (1,12744)             0.16180925    
   12745    (1,12745)             0.23060875    
   12746    (1,12746)             0.18712551    
   12747    (1,12747)             0.31343490    
   12748    (1,12748)             0.14075624    
   12749    (1,12749)             0.26127163    
   12750    (1,12750)             0.23027693    
   12751    (1,12751)             0.24000808    
   12752    (1,12752)             0.18130439    
   12753    (1,12753)             0.24862170    
   12754    (1,12754)             0.12793497    
   12755    (1,12755)             0.21788784    
   12756    (1,12756)             0.21683993    
   12757    (1,12757)             0.30749512    
   12758    (1,12758)             0.31150728    
   12759    (1,12759)             0.21170763    
   12760    (1,12760)             0.21303498    
   12761    (1,12761)             0.21596464    
   12762    (1,12762)             0.19876991    
   12763    (1,12763)             0.14641504    
   12764    (1,12764)             0.16361224    
   12765    (1,12765)             0.29494503    
   12766    (1,12766)             0.23156629    
   12767    (1,12767)             0.21653517    
   12768    (1,12768)             0.16533716    
   12769    (1,12769)             0.11929710    
   12770    (1,12770)             0.16231601    
   12771    (1,12771)             0.18532970    
   12772    (1,12772)             0.14466572    
   12773    (1,12773)             0.15571932    
   12774    (1,12774)             0.12218894    
   12775    (1,12775)             0.13664400    
   12776    (1,12776)             0.14328605    
   12777    (1,12777)             0.13282619    
   12778    (1,12778)             0.13811301    
   12779    (1,12779)             0.15398346    
   12780    (1,12780)             0.15636528    
   12781    (1,12781)             0.16500068    
   12782    (1,12782)             0.15625860    
   12783    (1,12783)             0.25249726    
   12784    (1,12784)             0.31910618    
   12785    (1,12785)             0.23570635    
   12786    (1,12786)             0.23888803    
   12787    (1,12787)             0.12576804    
   12788    (1,12788)             0.14782719    
   12789    (1,12789)             0.13445073    
   12790    (1,12790)             0.19923685    
   12791    (1,12791)             0.20046511    
   12792    (1,12792)             0.17632647    
   12793    (1,12793)             0.25219589    
   12794    (1,12794)             0.29732285    
   12795    (1,12795)             0.19459432    
   12796    (1,12796)             0.30542226    
   12797    (1,12797)             0.13109806    
   12798    (1,12798)             0.21671931    
   12799    (1,12799)             0.15574184    
   12800    (1,12800)             0.18658064    
   12801    (1,12801)             0.14883243    
   12802    (1,12802)             0.15075897    
   12803    (1,12803)             0.19593544    
   12804    (1,12804)             0.20180427    
   12805    (1,12805)             0.23593343    
   12806    (1,12806)             0.28417948    
   12807    (1,12807)             0.18113220    
   12808    (1,12808)             0.11272147    
   12809    (1,12809)             0.11883655    
   12810    (1,12810)             0.18387468    
   12811    (1,12811)             0.16892552    
   12812    (1,12812)             0.13229642    
   12813    (1,12813)             0.15471895    
   12814    (1,12814)             0.18613097    
   12815    (1,12815)             0.16392575    
   12816    (1,12816)             0.26963572    
   12817    (1,12817)             0.26628172    
   12818    (1,12818)             0.21538969    
 -----------------------------------------------




 HEAD WILL BE SAVED ON UNIT 1018 AT END OF TIME STEP    1, STRESS PERIOD    1


  VOLUME BUDGET FOR ENTIRE MODEL AT END OF TIME STEP    1, STRESS PERIOD   1
  ---------------------------------------------------------------------------------------------------

     CUMULATIVE VOLUME      L**3       RATES FOR THIS TIME STEP      L**3/T          PACKAGE NAME    
     ------------------                 ------------------------                     ----------------

           IN:                                      IN:
           ---                                      ---
                 WEL =           0.0000                   WEL =           0.0000     WELL_CASEC                       
                 RCH =         562.6097                   RCH =         562.6097     RCH                              
                 EVT =           0.0000                   EVT =           0.0000     EVT                              
                 CHD =          11.0097                   CHD =          11.0097     CHD                              

            TOTAL IN =         573.6194              TOTAL IN =         573.6194

          OUT:                                     OUT:
          ----                                     ----
                 WEL =          74.1339                   WEL =          74.1339     WELL_CASEC                       
                 RCH =           0.0000                   RCH =           0.0000     RCH                              
                 EVT =           8.1613                   EVT =           8.1613     EVT                              
                 CHD =         491.3233                   CHD =         491.3233     CHD                              

           TOTAL OUT =         573.6185             TOTAL OUT =         573.6185

            IN - OUT =       9.4731E-04              IN - OUT =       9.4731E-04

 PERCENT DISCREPANCY =           0.00     PERCENT DISCREPANCY =           0.00




         TIME SUMMARY AT END OF TIME STEP    1 IN STRESS PERIOD    1
                    SECONDS     MINUTES      HOURS       DAYS        YEARS
                    -----------------------------------------------------------
   TIME STEP LENGTH  1.0000     1.66667E-02 2.77778E-04 1.15741E-05 3.16881E-08
 STRESS PERIOD TIME  1.0000     1.66667E-02 2.77778E-04 1.15741E-05 3.16881E-08
         TOTAL TIME  1.0000     1.66667E-02 2.77778E-04 1.15741E-05 3.16881E-08


end timestep

