                                   MODFLOW 6
                U.S. GEOLOGICAL SURVEY MODULAR HYDROLOGIC MODEL
                          GROUNDWATER FLOW MODEL (GWF)
                            VERSION 6.6.0 12/20/2024

   MODFLOW 6 compiled Dec 31 2024 17:10:16 with Intel(R) Fortran Intel(R) 64
   Compiler Classic for applications running on Intel(R) 64, Version 2021.7.0
                             Build 20220726_000000

This software has been approved for release by the U.S. Geological 
Survey (USGS). Although the software has been subjected to rigorous 
review, the USGS reserves the right to update the software as needed 
pursuant to further analysis and review. No warranty, expressed or 
implied, is made by the USGS or the U.S. Government as to the 
functionality of the software and related material nor shall the 
fact of release constitute any such warranty. Furthermore, the 
software is released on condition that neither the USGS nor the U.S. 
Government shall be held liable for any damages resulting from its 
authorized or unauthorized use. Also refer to the USGS Water 
Resources Software User Rights Notice for complete use, copyright, 
and distribution information.


As a work of the United States Government, this USGS product is 
in the public domain within the United States. You can copy, 
modify, distribute, and perform the work, even for commercial 
purposes, all without asking permission. Additionally, USGS 
waives copyright and related rights in the work worldwide 
through CC0 1.0 Universal Public Domain Dedication 
(https://creativecommons.org/publicdomain/zero/1.0/).

The following GNU Lesser General Public License (LGPL) libraries
are used in this USGS product:

    SPARSKIT version 2.0
      ilut, luson, and qsplit 
      (https://www-users.cse.umn.edu/~saad/software/SPARSKIT/)

    RCM - Reverse Cuthill McKee Ordering
      (https://people.math.sc.edu/Burkardt/f_src/rcm/rcm.html)

    BLAS - Basic Linear Algebra Subprograms Level 1
      (https://people.math.sc.edu/Burkardt/f_src/blas1_d/blas1_d.html)

    SPARSEKIT - Sparse Matrix Utility Package
      amux, dperm, dvperm, rperm, and cperm
      (https://people.sc.fsu.edu/~jburkardt/f77_src/sparsekit/sparsekit.html)

The following BSD-3 License libraries are used in this USGS product:

    Modern Fortran DAG Library
      Copyright (c) 2018, Jacob Williams
      All rights reserved.
      (https://github.com/jacobwilliams/daglib)

MODFLOW 6 compiler options: /O2 /heap-arrays:0 /fpe:0 /traceback /nologo /fpp
/c /module:win64\mod_mf6\ /object:win64\obj_mf6\

System command used to initiate simulation:
C:\Users\sebas\AppData\Local\flopy\bin\mf6.exe

MODFLOW was compiled using uniform precision.

Real Variables
  KIND: 8
  TINY (smallest non-zero value):    2.225074-308
  HUGE (largest value):    1.797693+308
  PRECISION: 15
  SIZE IN BITS: 64

Integer Variables
  KIND: 4
  HUGE (largest value): 2147483647
  SIZE IN BITS: 32

Long Integer Variables
  KIND: 8
  HUGE (largest value): 9223372036854775807
  SIZE IN BITS: 64

Logical Variables
  KIND: 4
  SIZE IN BITS: 32
 
 NAMEFILE OPTIONS:
    NEWTON-RAPHSON method enabled for the model.
    NEWTON-RAPHSON UNDER-RELAXATION based on the bottom elevation of the model will be applied to the model.
    FLOWS WILL BE SAVED TO BUDGET FILE SPECIFIED IN OUTPUT CONTROL
 END NAMEFILE OPTIONS:

 DISV -- VERTEX GRID DISCRETIZATION PACKAGE, VERSION 1 : 12/23/2015 - INPUT READ FROM MEMPATH: __INPUT__/TRIANGLE_CASEC/DISV                     


 Setting Discretization Options
 End Setting Discretization Options

 Setting Discretization Dimensions
    NLAY = 2
    NCPL = 12818
    NVERT = 7464
 End Setting Discretization Dimensions

 Setting Discretization Griddata
    TOP set from input file
    BOTM set from input file
 End Setting Discretization Griddata

 Discretization Vertex data loaded
 Discretization Cell2d data loaded

 NPF -- NODE PROPERTY FLOW PACKAGE, VERSION 1, 3/30/2015 INPUT READ FROM MEMPATH: __INPUT__/TRIANGLE_CASEC/NPF                      


 IC -- Initial Conditions Package, Version 8, 3/28/2015 input read from mempath: __INPUT__/TRIANGLE_CASEC/IC                       


 Setting NPF Options
    Cell-by-cell flow information will be saved to binary file whenever ICBCFL is not zero.
    Specific discharge will be calculated at cell centers and written to DATA-SPDIS in budget file when requested.
 End Setting NPF Options

 Setting NPF Griddata
    ICELLTYPE set from input file
    K set from input file
    K33 not provided.  Setting K33 = K.
    K22 not provided.  Setting K22 = K.
 End Setting NPF Griddata


 WEL   -- WEL PACKAGE, VERSION 8, 2/22/2014 INPUT READ FROM MEMPATH: __INPUT__/TRIANGLE_CASEC/WELL_CASEC               

 PROCESSING WEL BASE OPTIONS
    FLOWS WILL BE SAVED TO BUDGET FILE SPECIFIED IN OUTPUT CONTROL
 END OF WEL BASE OPTIONS

 PROCESSING WEL OPTIONS
 END OF WEL OPTIONS

 PROCESSING WEL BASE DIMENSIONS
    MAXBOUND =   15194
 END OF WEL BASE DIMENSIONS

 RCH   -- RCH PACKAGE, VERSION 8, 2/22/2014 INPUT READ FROM MEMPATH: __INPUT__/TRIANGLE_CASEC/RCH                      

 PROCESSING RCH BASE OPTIONS
    FLOWS WILL BE SAVED TO BUDGET FILE SPECIFIED IN OUTPUT CONTROL
    RCH FLOWS WILL BE PRINTED TO LISTING FILE.
 END OF RCH BASE OPTIONS

 PROCESSING RCH OPTIONS
    RECHARGE WILL BE APPLIED TO SPECIFIED CELL.
 END OF RCH OPTIONS

 PROCESSING RCH BASE DIMENSIONS
    MAXBOUND =   12818
 END OF RCH BASE DIMENSIONS

 EVT   -- EVT PACKAGE, VERSION 8, 2/22/2014 INPUT READ FROM MEMPATH: __INPUT__/TRIANGLE_CASEC/EVT                      

 PROCESSING EVT BASE OPTIONS
    FLOWS WILL BE SAVED TO BUDGET FILE SPECIFIED IN OUTPUT CONTROL
 END OF EVT BASE OPTIONS

 PROCESSING EVT OPTIONS
 END OF EVT OPTIONS

 PROCESSING EVT BASE DIMENSIONS
    MAXBOUND =   10279
 END OF EVT BASE DIMENSIONS

 PROCESSING EVT DIMENSIONS
    NSEG = 1
 END OF EVT DIMENSIONS

 CHD   -- CHD PACKAGE, VERSION 8, 2/22/2014 INPUT READ FROM MEMPATH: __INPUT__/TRIANGLE_CASEC/CHD                      

 PROCESSING CHD BASE OPTIONS
    FLOWS WILL BE SAVED TO BUDGET FILE SPECIFIED IN OUTPUT CONTROL
 END OF CHD BASE OPTIONS

 PROCESSING CHD BASE DIMENSIONS
    MAXBOUND =    3460
 END OF CHD BASE DIMENSIONS
    STRT set from input file
    BINARY GRID INFORMATION WILL BE WRITTEN TO:
      UNIT NUMBER: 1016
      FILE NAME: triangle_caseC.disv.grb

 OPENED triangle_caseC.disv.grb
 FILE TYPE:DATA(BINARY)   UNIT 1016   STATUS:REPLACE             
 FORMAT:UNFORMATTED            ACCESS:STREAM              
 ACTION:READWRITE           

      THE LAST TIME STEP WILL BE PRINTED
      THE LAST TIME STEP WILL BE PRINTED
 # File generated by Flopy version 3.9.1 on 02/09/2026 at 23:33:23.

 PROCESSING OC OPTIONS

    BUDGET INFORMATION WILL BE WRITTEN TO:
      UNIT NUMBER: 1017
      FILE NAME: triangle_caseC.cbc

 OPENED triangle_caseC.cbc
 FILE TYPE:DATA(BINARY)   UNIT 1017   STATUS:REPLACE             
 FORMAT:UNFORMATTED            ACCESS:STREAM              
 ACTION:READWRITE           

    HEAD INFORMATION WILL BE WRITTEN TO:
      UNIT NUMBER: 1018
      FILE NAME: triangle_caseC.hds

 OPENED triangle_caseC.hds
 FILE TYPE:DATA(BINARY)   UNIT 1018   STATUS:REPLACE             
 FORMAT:UNFORMATTED            ACCESS:STREAM              
 ACTION:READWRITE           

 END OF OC OPTIONS

start timestep kper="1" kstp="1" mode="normal"


 BEGIN READING OUTPUT CONTROL FOR STRESS PERIOD 1
      THE LAST TIME STEP WILL BE SAVED
      THE LAST TIME STEP WILL BE SAVED
      THE LAST TIME STEP WILL BE PRINTED

 END READING OUTPUT CONTROL FOR STRESS PERIOD 1
 UBDSV1 SAVING     FLOW-JA-FACE ON UNIT   1017 AT TIME STEP      1, STRESS PERIOD      1
 UBDSV06 SAVING       DATA-SPDIS IN MODEL TRIANGLE_CASEC   PACKAGE NPF             CONNECTED TO MODEL TRIANGLE_CASEC   PACKAGE NPF              ON UNIT   1017 AT TIME STEP      1, STRESS PERIOD      1
 UBDSV06 SAVING              WEL IN MODEL TRIANGLE_CASEC   PACKAGE TRIANGLE_CASEC  CONNECTED TO MODEL TRIANGLE_CASEC   PACKAGE WELL_CASEC       ON UNIT   1017 AT TIME STEP      1, STRESS PERIOD      1
 UBDSV06 SAVING              RCH IN MODEL TRIANGLE_CASEC   PACKAGE TRIANGLE_CASEC  CONNECTED TO MODEL TRIANGLE_CASEC   PACKAGE RCH              ON UNIT   1017 AT TIME STEP      1, STRESS PERIOD      1
 UBDSV06 SAVING              EVT IN MODEL TRIANGLE_CASEC   PACKAGE TRIANGLE_CASEC  CONNECTED TO MODEL TRIANGLE_CASEC   PACKAGE EVT              ON UNIT   1017 AT TIME STEP      1, STRESS PERIOD      1
 UBDSV06 SAVING              CHD IN MODEL TRIANGLE_CASEC   PACKAGE TRIANGLE_CASEC  CONNECTED TO MODEL TRIANGLE_CASEC   PACKAGE CHD              ON UNIT   1017 AT TIME STEP      1, STRESS PERIOD      1

 RCH PACKAGE (RCH) FLOW RATES   PERIOD      1   STEP        1
 -----------------------------------------------
   NUMBER   CELLID                    RATE      
 -----------------------------------------------
     1      (1,1)                 1.91037593E-04
     2      (1,2)                 0.0000000     
     3      (1,3)                 1.04945813E-04
     4      (1,4)                 1.68002830E-05
     5      (1,5)                 1.36925660E-05
     6      (1,6)                 1.53029756E-05
     7      (1,7)                 6.21493426E-04
     8      (1,8)                 1.06198464E-05
     9      (1,9)                 7.12612670E-04
     10     (1,10)                4.35662933E-04
     11     (1,11)                6.17141159E-06
     12     (1,12)                5.74082800E-04
     13     (1,13)                7.15310827E-05
     14     (1,14)                5.95050954E-06
     15     (1,15)                1.30650845E-05
     16     (1,16)                5.50303270E-06
     17     (1,17)                2.87807631E-02
     18     (1,18)                8.02270628E-06
     19     (1,19)                6.17176700E-06
     20     (1,20)                6.36987093E-04
     21     (1,21)                9.86284423E-06
     22     (1,22)                5.57234918E-06
     23     (1,23)                8.33298720E-06
     24     (1,24)                5.57331708E-06
     25     (1,25)                1.44395951E-05
     26     (1,26)                1.11478637E-04
     27     (1,27)                3.11844256E-04
     28     (1,28)                5.94898822E-06
     29     (1,29)                6.88599507E-06
     30     (1,30)                7.04479471E-06
     31     (1,31)                1.29152601E-03
     32     (1,32)                5.95059931E-06
     33     (1,33)                1.14542336E-05
     34     (1,34)                5.57433715E-06
     35     (1,35)                2.94008682E-03
     36     (1,36)                1.17441477E-04
     37     (1,37)                5.73830367E-06
     38     (1,38)                1.06732724E-05
     39     (1,39)                2.04339251E-05
     40     (1,40)                9.86125404E-06
     41     (1,41)                3.39447220E-05
     42     (1,42)                1.06666297E-05
     43     (1,43)                8.26651224E-04
     44     (1,44)                2.66058783E-04
     45     (1,45)                4.97409551E-05
     46     (1,46)                2.46183931E-04
     47     (1,47)                2.02836301E-05
     48     (1,48)                1.08381672E-04
     49     (1,49)                1.73003913E-04
     50     (1,50)                1.95475065E-05
     51     (1,51)                1.13307456E-03
     52     (1,52)                7.52204454E-06
     53     (1,53)                2.76980340E-04
     54     (1,54)                6.84901520E-04
     55     (1,55)                9.13828178E-06
     56     (1,56)                6.21129000E-05
     57     (1,57)                5.24993564E-06
     58     (1,58)                3.02473984E-04
     59     (1,59)                2.07244700E-05
     60     (1,60)                1.22228114E-03
     61     (1,61)                5.82328423E-04
     62     (1,62)                0.0000000     
     63     (1,63)                9.34858596E-06
     64     (1,64)                5.35087627E-06
     65     (1,65)                5.90736338E-06
     66     (1,66)                9.83141350E-03
     67     (1,67)                5.50516745E-06
     68     (1,68)                1.05461398E-05
     69     (1,69)                5.70137383E-06
     70     (1,70)                1.01515322E-05
     71     (1,71)                0.0000000     
     72     (1,72)                2.06305407E-05
     73     (1,73)                4.93601845E-06
     74     (1,74)                5.07465136E-06
     75     (1,75)                3.77912132E-04
     76     (1,76)                2.52395162E-05
     77     (1,77)                1.13239828E-03
     78     (1,78)                7.13443439E-04
     79     (1,79)                3.67159105E-05
     80     (1,80)                1.63681391E-04
     81     (1,81)                2.61573644E-05
     82     (1,82)                1.45529022E-03
     83     (1,83)                1.12093530E-03
     84     (1,84)                3.01768743E-05
     85     (1,85)                1.57560373E-05
     86     (1,86)                5.89433114E-06
     87     (1,87)                5.90640151E-06
     88     (1,88)                8.06785250E-04
     89     (1,89)                1.98725693E-04
     90     (1,90)                4.64258024E-04
     91     (1,91)                1.68138984E-05
     92     (1,92)                1.81976249E-06
     93     (1,93)                7.38988763E-06
     94     (1,94)                7.06116660E-06
     95     (1,95)                5.73947485E-06
     96     (1,96)                6.89988943E-06
     97     (1,97)                2.29079905E-04
     98     (1,98)                2.22754714E-05
     99     (1,99)                1.06441890E-05
    100     (1,100)               6.91408785E-04
    101     (1,101)               1.09002494E-05
    102     (1,102)               6.20362626E-06
    103     (1,103)               1.34673669E-05
    104     (1,104)               1.63392072E-05
    105     (1,105)               1.73468398E-05
    106     (1,106)               5.59400413E-06
    107     (1,107)               1.65356143E-05
    108     (1,108)               6.24042811E-04
    109     (1,109)               5.59628476E-06
    110     (1,110)               1.27598432E-05
    111     (1,111)               5.58050531E-06
    112     (1,112)               5.76295494E-06
    113     (1,113)               5.59628040E-06
    114     (1,114)               6.20363503E-06
    115     (1,115)               1.37874383E-05
    116     (1,116)               5.76181004E-06
    117     (1,117)               5.80601851E-06
    118     (1,118)               8.35535926E-06
    119     (1,119)               9.72463483E-06
    120     (1,120)               2.97529022E-04
    121     (1,121)               1.20635241E-03
    122     (1,122)               6.20963635E-06
    123     (1,123)               5.76591509E-06
    124     (1,124)               5.59873010E-06
    125     (1,125)               1.45999940E-05
    126     (1,126)               6.73307281E-05
    127     (1,127)               5.76475330E-06
    128     (1,128)               5.80852854E-06
    129     (1,129)               5.98127414E-06
    130     (1,130)               5.76207511E-06
    131     (1,131)               9.49075827E-06
    132     (1,132)               5.95626355E-04
    133     (1,133)               7.01808606E-04
    134     (1,134)               5.96644705E-06
    135     (1,135)               7.02588814E-06
    136     (1,136)               1.13267126E-05
    137     (1,137)               1.47740822E-05
    138     (1,138)               6.38425469E-06
    139     (1,139)               8.61705755E-04
    140     (1,140)               1.15644830E-05
    141     (1,141)               5.57148553E-06
    142     (1,142)               5.57052586E-06
    143     (1,143)               9.85972209E-06
    144     (1,144)               1.38752484E-05
    145     (1,145)               6.63402993E-06
    146     (1,146)               4.31203451E-04
    147     (1,147)               1.03375727E-05
    148     (1,148)               1.38825539E-03
    149     (1,149)               1.13549048E-05
    150     (1,150)               2.04271160E-05
    151     (1,151)               6.22692679E-06
    152     (1,152)               0.0000000     
    153     (1,153)               1.05003586E-05
    154     (1,154)               5.05125809E-04
    155     (1,155)               6.38238021E-06
    156     (1,156)               6.14654441E-06
    157     (1,157)               5.96463880E-06
    158     (1,158)               1.22913589E-05
    159     (1,159)               1.46821710E-05
    160     (1,160)               2.21909050E-05
    161     (1,161)               9.04726887E-04
    162     (1,162)               5.80128253E-03
    163     (1,163)               1.78653347E-05
    164     (1,164)               7.51876215E-06
    165     (1,165)               1.37193183E-05
    166     (1,166)               5.98143906E-06
    167     (1,167)               7.34359874E-06
    168     (1,168)               1.21556121E-05
    169     (1,169)               6.63099997E-06
    170     (1,170)               1.02202155E-05
    171     (1,171)               5.96450393E-06
    172     (1,172)               6.22577249E-06
    173     (1,173)               6.81087651E-04
    174     (1,174)               4.33660754E-04
    175     (1,175)               0.0000000     
    176     (1,176)               5.65740482E-06
    177     (1,177)               5.70062649E-06
    178     (1,178)               1.18721283E-03
    179     (1,179)               8.53024062E-04
    180     (1,180)               6.11877966E-06
    181     (1,181)               7.82525801E-04
    182     (1,182)               7.87902612E-04
    183     (1,183)               5.29581905E-06
    184     (1,184)               1.60040959E-05
    185     (1,185)               1.26507614E-05
    186     (1,186)               1.01046924E-05
    187     (1,187)               7.73115413E-04
    188     (1,188)               6.00235646E-04
    189     (1,189)               9.23962875E-06
    190     (1,190)               4.41954497E-04
    191     (1,191)               5.85452648E-06
    192     (1,192)               6.91452830E-04
    193     (1,193)               1.00529620E-05
    194     (1,194)               1.04024495E-05
    195     (1,195)               5.45168562E-06
    196     (1,196)               5.24653460E-06
    197     (1,197)               1.51540757E-05
    198     (1,198)               1.88405425E-05
    199     (1,199)               1.23490721E-05
    200     (1,200)               5.28699685E-04
    201     (1,201)               1.29701621E-05
    202     (1,202)               5.29501190E-06
    203     (1,203)               5.45099245E-06
    204     (1,204)               2.65948383E-03
    205     (1,205)               5.64722666E-06
    206     (1,206)               5.29601178E-06
    207     (1,207)               7.93337308E-06
    208     (1,208)               5.83864774E-06
    209     (1,209)               6.70142633E-06
    210     (1,210)               6.55150724E-06
    211     (1,211)               1.38399780E-05
    212     (1,212)               6.05497178E-06
    213     (1,213)               1.60034558E-05
    214     (1,214)               6.70069688E-06
    215     (1,215)               5.24641736E-06
    216     (1,216)               5.85383291E-06
    217     (1,217)               5.45049583E-06
    218     (1,218)               5.64956183E-06
    219     (1,219)               5.64915714E-06
    220     (1,220)               5.44892443E-06
    221     (1,221)               2.83065280E-03
    222     (1,222)               5.85514474E-06
    223     (1,223)               7.16002993E-04
    224     (1,224)               1.72186441E-03
    225     (1,225)               7.84844276E-05
    226     (1,226)               5.64885308E-06
    227     (1,227)               2.00657053E-05
    228     (1,228)               5.63068390E-06
    229     (1,229)               1.42314023E-05
    230     (1,230)               8.17640229E-06
    231     (1,231)               6.05967650E-04
    232     (1,232)               6.47518734E-04
    233     (1,233)               6.05435236E-04
    234     (1,234)               6.77054512E-04
    235     (1,235)               5.62941509E-06
    236     (1,236)               5.83889176E-06
    237     (1,237)               5.83917327E-06
    238     (1,238)               8.68158030E-06
    239     (1,239)               1.36073746E-05
    240     (1,240)               5.46756051E-06
    241     (1,241)               1.04715488E-05
    242     (1,242)               6.48460268E-04
    243     (1,243)               9.51720583E-06
    244     (1,244)               1.34380004E-05
    245     (1,245)               5.83936859E-06
    246     (1,246)               5.46785652E-06
    247     (1,247)               1.60048421E-05
    248     (1,248)               6.05523426E-06
    249     (1,249)               5.83828813E-06
    250     (1,250)               8.17570416E-06
    251     (1,251)               2.77739569E-05
    252     (1,252)               1.06913530E-05
    253     (1,253)               5.46675523E-06
    254     (1,254)               8.17447964E-06
    255     (1,255)               7.54510599E-04
    256     (1,256)               5.83809166E-06
    257     (1,257)               5.46689532E-06
    258     (1,258)               5.62928795E-06
    259     (1,259)               5.62883458E-06
    260     (1,260)               1.04706242E-05
    261     (1,261)               5.62830805E-06
    262     (1,262)               5.83714604E-06
    263     (1,263)               1.04704358E-05
    264     (1,264)               9.67382819E-06
    265     (1,265)               5.83810172E-06
    266     (1,266)               0.13987753    
    267     (1,267)               1.01126790E-05
    268     (1,268)               0.0000000     
    269     (1,269)               1.30566538E-05
    270     (1,270)               1.52520116E-05
    271     (1,271)               5.31600181E-05
    272     (1,272)               1.63232714E-05
    273     (1,273)               4.92310217E-05
    274     (1,274)               9.84471530E-05
    275     (1,275)               1.06311078E-04
    276     (1,276)               1.97314309E-03
    277     (1,277)               5.64731602E-06
    278     (1,278)               6.82616932E-04
    279     (1,279)               4.49454557E-05
    280     (1,280)               1.16635250E-05
    281     (1,281)               7.25136651E-06
    282     (1,282)               7.08391433E-06
    283     (1,283)               1.38550397E-05
    284     (1,284)               1.35928468E-05
    285     (1,285)               5.97287581E-06
    286     (1,286)               6.37698038E-06
    287     (1,287)               6.74867663E-06
    288     (1,288)               0.0000000     
    289     (1,289)               8.99074114E-06
    290     (1,290)               5.92002344E-06
    291     (1,291)               4.34271423E-04
    292     (1,292)               8.57748777E-06
    293     (1,293)               5.68443115E-06
    294     (1,294)               5.85553026E-06
    295     (1,295)               1.42301288E-05
    296     (1,296)               1.09176601E-05
    297     (1,297)               6.05431563E-06
    298     (1,298)               6.07681130E-06
    299     (1,299)               5.74574860E-06
    300     (1,300)               5.91897232E-06
    301     (1,301)               1.14530679E-05
    302     (1,302)               6.14415071E-06
    303     (1,303)               7.25136871E-06
    304     (1,304)               1.72551226E-05
    305     (1,305)               5.74127323E-06
    306     (1,306)               6.14463291E-06
    307     (1,307)               7.08453929E-06
    308     (1,308)               1.08312344E-05
    309     (1,309)               6.07641291E-06
    310     (1,310)               1.17510100E-05
    311     (1,311)               2.69254272E-04
    312     (1,312)               6.37752727E-06
    313     (1,313)               6.25908888E-06
    314     (1,314)               5.64498800E-06
    315     (1,315)               5.81405038E-06
    316     (1,316)               5.64452976E-06
    317     (1,317)               5.83811433E-06
    318     (1,318)               6.05544511E-06
    319     (1,319)               4.46263267E-04
    320     (1,320)               6.03174240E-06
    321     (1,321)               8.67992309E-06
    322     (1,322)               1.39092108E-05
    323     (1,323)               8.82903390E-06
    324     (1,324)               5.46744552E-06
    325     (1,325)               5.43861537E-06
    326     (1,326)               9.51702914E-06
    327     (1,327)               1.34393101E-05
    328     (1,328)               6.05466224E-06
    329     (1,329)               6.25943145E-06
    330     (1,330)               5.83832050E-06
    331     (1,331)               1.65603188E-03
    332     (1,332)               8.42990248E-06
    333     (1,333)               1.39464587E-05
    334     (1,334)               8.93973312E-06
    335     (1,335)               1.28734583E-05
    336     (1,336)               5.63181455E-06
    337     (1,337)               5.81580471E-06
    338     (1,338)               1.10055187E-05
    339     (1,339)               1.48189135E-05
    340     (1,340)               5.85931803E-06
    341     (1,341)               9.81291731E-06
    342     (1,342)               5.63084061E-06
    343     (1,343)               1.94910728E-02
    344     (1,344)               1.28746901E-05
    345     (1,345)               2.27827952E-02
    346     (1,346)               6.03316440E-06
    347     (1,347)               3.65073100E-02
    348     (1,348)               1.36884828E-05
    349     (1,349)               4.67768095E-02
    350     (1,350)               6.77919995E-02
    351     (1,351)               2.07123468E-05
    352     (1,352)               1.77149481E-02
    353     (1,353)               2.98420568E-02
    354     (1,354)               5.81451711E-06
    355     (1,355)               1.64908023E-05
    356     (1,356)               1.43235003E-05
    357     (1,357)               1.22778756E-04
    358     (1,358)               6.94393984E-04
    359     (1,359)               5.68753010E-06
    360     (1,360)               6.19329562E-03
    361     (1,361)               1.38621294E-05
    362     (1,362)               5.91310463E-04
    363     (1,363)               6.69408747E-04
    364     (1,364)               1.90136096E-04
    365     (1,365)               4.89975571E-05
    366     (1,366)               1.69876196E-03
    367     (1,367)               1.03834609E-05
    368     (1,368)               1.34569043E-05
    369     (1,369)               8.38279476E-04
    370     (1,370)               1.04771093E-05
    371     (1,371)               6.89007237E-06
    372     (1,372)               1.64000884E-05
    373     (1,373)               5.83258854E-06
    374     (1,374)               2.07112442E-05
    375     (1,375)               1.11696076E-05
    376     (1,376)               5.45803730E-06
    377     (1,377)               1.17286268E-04
    378     (1,378)               6.05231108E-06
    379     (1,379)               6.72906638E-06
    380     (1,380)               1.22839011E-03
    381     (1,381)               3.08875059E-04
    382     (1,382)               1.34538274E-05
    383     (1,383)               5.62161494E-06
    384     (1,384)               6.51765098E-04
    385     (1,385)               5.63325027E-04
    386     (1,386)               6.83821604E-04
    387     (1,387)               6.70049131E-04
    388     (1,388)               8.26513073E-04
    389     (1,389)               6.72034436E-04
    390     (1,390)               5.45665366E-06
    391     (1,391)               5.45740513E-06
    392     (1,392)               9.63648578E-06
    393     (1,393)               1.40945612E-03
    394     (1,394)               6.05268976E-06
    395     (1,395)               5.62094795E-06
    396     (1,396)               8.63693084E-06
    397     (1,397)               9.06877799E-06
    398     (1,398)               3.83696428E-05
    399     (1,399)               8.14912200E-06
    400     (1,400)               5.60472645E-06
    401     (1,401)               5.61952191E-04
    402     (1,402)               6.69948341E-04
    403     (1,403)               2.76025947E-07
    404     (1,404)               1.54697797E-03
    405     (1,405)               5.66691529E-06
    406     (1,406)               9.63642266E-06
    407     (1,407)               4.69584129E-05
    408     (1,408)               5.45745228E-06
    409     (1,409)               5.48240786E-06
    410     (1,410)               1.43273683E-05
    411     (1,411)               5.62182693E-06
    412     (1,412)               5.48190707E-06
    413     (1,413)               6.62745459E-04
    414     (1,414)               9.24112303E-08
    415     (1,415)               6.65371859E-04
    416     (1,416)               1.06473304E-03
    417     (1,417)               5.13906948E-06
    418     (1,418)               1.55293551E-05
    419     (1,419)               9.32951066E-06
    420     (1,420)               5.68184813E-06
    421     (1,421)               5.48105378E-06
    422     (1,422)               5.48148868E-06
    423     (1,423)               9.80651031E-06
    424     (1,424)               1.24088173E-05
    425     (1,425)               6.50307001E-06
    426     (1,426)               1.46972033E-05
    427     (1,427)               5.68232072E-06
    428     (1,428)               2.57637226E-05
    429     (1,429)               9.75796266E-06
    430     (1,430)               6.50201219E-06
    431     (1,431)               4.99029809E-03
    432     (1,432)               5.68190145E-06
    433     (1,433)               6.35932549E-06
    434     (1,434)               1.25879579E-05
    435     (1,435)               5.29075645E-06
    436     (1,436)               6.35848652E-06
    437     (1,437)               5.48276656E-06
    438     (1,438)               9.81526402E-06
    439     (1,439)               5.28956330E-06
    440     (1,440)               7.69961926E-06
    441     (1,441)               1.25917182E-05
    442     (1,442)               5.48417434E-06
    443     (1,443)               6.50237012E-06
    444     (1,444)               2.82180312E-03
    445     (1,445)               5.13915823E-06
    446     (1,446)               5.48119227E-06
    447     (1,447)               2.94820689E-05
    448     (1,448)               5.68373381E-06
    449     (1,449)               3.88854681E-04
    450     (1,450)               3.71223453E-05
    451     (1,451)               1.43663849E-05
    452     (1,452)               7.07062512E-04
    453     (1,453)               5.67425466E-06
    454     (1,454)               6.11038461E-06
    455     (1,455)               5.89049615E-06
    456     (1,456)               5.67764036E-06
    457     (1,457)               6.11017147E-06
    458     (1,458)               5.88834488E-06
    459     (1,459)               1.85764122E-05
    460     (1,460)               6.11263765E-06
    461     (1,461)               2.41398887E-04
    462     (1,462)               8.87476223E-06
    463     (1,463)               5.67526234E-06
    464     (1,464)               1.43676882E-05
    465     (1,465)               5.88821479E-06
    466     (1,466)               5.50981657E-06
    467     (1,467)               5.88705710E-06
    468     (1,468)               8.72757572E-06
    469     (1,469)               8.23013943E-06
    470     (1,470)               6.77876804E-04
    471     (1,471)               1.35843116E-05
    472     (1,472)               6.11255892E-06
    473     (1,473)               6.11423610E-06
    474     (1,474)               2.88548966E-05
    475     (1,475)               6.81150772E-04
    476     (1,476)               5.51689258E-04
    477     (1,477)               1.39403183E-03
    478     (1,478)               6.79910003E-04
    479     (1,479)               6.78328642E-04
    480     (1,480)               7.75836198E-05
    481     (1,481)               8.72954789E-06
    482     (1,482)               1.05761848E-05
    483     (1,483)               5.89120943E-06
    484     (1,484)               5.67650473E-06
    485     (1,485)               5.67690730E-06
    486     (1,486)               5.88958456E-06
    487     (1,487)               9.57858335E-06
    488     (1,488)               5.51159060E-06
    489     (1,489)               1.43700033E-05
    490     (1,490)               1.36578178E-05
    491     (1,491)               4.89764749E-04
    492     (1,492)               1.96007438E-03
    493     (1,493)               3.70303545E-04
    494     (1,494)               5.50986621E-06
    495     (1,495)               1.18812381E-04
    496     (1,496)               5.71537154E-06
    497     (1,497)               5.55081173E-06
    498     (1,498)               9.79588508E-06
    499     (1,499)               6.15923812E-06
    500     (1,500)               1.36932155E-05
    501     (1,501)               5.55059007E-06
    502     (1,502)               6.15937544E-06
    503     (1,503)               5.14086060E-06
    504     (1,504)               7.74356398E-04
    505     (1,505)               9.81620648E-06
    506     (1,506)               9.11400066E-06
    507     (1,507)               3.17286446E-05
    508     (1,508)               1.92556057E-04
    509     (1,509)               5.93354714E-06
    510     (1,510)               6.15848982E-06
    511     (1,511)               8.28351048E-06
    512     (1,512)               5.93219003E-06
    513     (1,513)               1.44797496E-05
    514     (1,514)               3.13364124E-03
    515     (1,515)               5.55241789E-06
    516     (1,516)               1.05593138E-05
    517     (1,517)               5.93498635E-06
    518     (1,518)               3.22760305E-05
    519     (1,519)               8.15092122E-04
    520     (1,520)               7.00667963E-06
    521     (1,521)               8.15035482E-04
    522     (1,522)               1.66763791E-05
    523     (1,523)               6.84543769E-06
    524     (1,524)               3.19292688E-03
    525     (1,525)               5.71779785E-06
    526     (1,526)               1.66721550E-05
    527     (1,527)               1.45822572E-05
    528     (1,528)               1.06595998E-05
    529     (1,529)               5.93290631E-06
    530     (1,530)               6.16107272E-06
    531     (1,531)               8.14450309E-04
    532     (1,532)               5.54392094E-06
    533     (1,533)               7.00465927E-06
    534     (1,534)               5.93527751E-06
    535     (1,535)               5.93587441E-06
    536     (1,536)               1.02958339E-03
    537     (1,537)               2.53347367E-04
    538     (1,538)               5.48375370E-06
    539     (1,539)               8.70961026E-04
    540     (1,540)               6.10996755E-06
    541     (1,541)               6.75333826E-04
    542     (1,542)               5.68022215E-06
    543     (1,543)               4.30377994E-04
    544     (1,544)               4.82781270E-05
    545     (1,545)               5.76679983E-06
    546     (1,546)               1.45654418E-05
    547     (1,547)               5.54220976E-06
    548     (1,548)               1.14347184E-05
    549     (1,549)               7.48233973E-04
    550     (1,550)               1.36702485E-05
    551     (1,551)               8.61807605E-04
    552     (1,552)               7.48412485E-04
    553     (1,553)               4.30110615E-04
    554     (1,554)               7.14232408E-04
    555     (1,555)               5.53853667E-06
    556     (1,556)               2.00057888E-05
    557     (1,557)               5.76521872E-06
    558     (1,558)               5.70688612E-06
    559     (1,559)               8.75153144E-06
    560     (1,560)               5.70768271E-06
    561     (1,561)               6.14844764E-06
    562     (1,562)               7.87709254E-04
    563     (1,563)               3.31435338E-05
    564     (1,564)               9.44199082E-06
    565     (1,565)               1.06442011E-05
    566     (1,566)               5.76554753E-06
    567     (1,567)               5.54023071E-06
    568     (1,568)               8.26266575E-06
    569     (1,569)               1.33739507E-05
    570     (1,570)               1.61380544E-05
    571     (1,571)               5.70453700E-06
    572     (1,572)               1.04107163E-03
    573     (1,573)               1.36796784E-05
    574     (1,574)               5.53776446E-06
    575     (1,575)               9.60957406E-06
    576     (1,576)               5.92166203E-06
    577     (1,577)               6.14855714E-06
    578     (1,578)               1.10224281E-05
    579     (1,579)               6.14901837E-06
    580     (1,580)               1.07620756E-05
    581     (1,581)               5.52097217E-04
    582     (1,582)               9.61536895E-06
    583     (1,583)               9.92198437E-04
    584     (1,584)               3.51119088E-04
    585     (1,585)               4.74234146E-06
    586     (1,586)               4.87629874E-06
    587     (1,587)               8.71333995E-04
    588     (1,588)               8.69055879E-04
    589     (1,589)               2.94654898E-05
    590     (1,590)               1.66751910E-03
    591     (1,591)               8.18817789E-06
    592     (1,592)               1.22322590E-05
    593     (1,593)               3.96020488E-03
    594     (1,594)               8.85885196E-06
    595     (1,595)               1.82134459E-03
    596     (1,596)               6.20452476E-06
    597     (1,597)               8.10810311E-04
    598     (1,598)               2.65911841E-02
    599     (1,599)               5.54210258E-02
    600     (1,600)               4.39614604E-03
    601     (1,601)               6.20436327E-06
    602     (1,602)               4.74558315E-02
    603     (1,603)               9.47043520E-05
    604     (1,604)               2.65891959E-04
    605     (1,605)               5.36934622E-06
    606     (1,606)               5.52864568E-06
    607     (1,607)               5.95125452E-06
    608     (1,608)               8.01949120E-06
    609     (1,609)               5.36836296E-06
    610     (1,610)               5.52866863E-06
    611     (1,611)               1.39669834E-03
    612     (1,612)               5.95197739E-06
    613     (1,613)               5.36634891E-06
    614     (1,614)               5.73544496E-06
    615     (1,615)               8.11255416E-04
    616     (1,616)               5.95400224E-06
    617     (1,617)               9.33442417E-06
    618     (1,618)               5.73761513E-06
    619     (1,619)               1.02075857E-05
    620     (1,620)               1.04766749E-05
    621     (1,621)               5.70270628E-06
    622     (1,622)               1.31635223E-03
    623     (1,623)               1.52986383E-05
    624     (1,624)               2.74756568E-05
    625     (1,625)               5.73372887E-06
    626     (1,626)               6.67737179E-04
    627     (1,627)               4.91366625E-04
    628     (1,628)               6.19037594E-02
    629     (1,629)               5.44393995E-04
    630     (1,630)               0.0000000     
    631     (1,631)               8.22335003E-06
    632     (1,632)               6.64224563E-04
    633     (1,633)               5.17182232E-06
    634     (1,634)               5.32390508E-06
    635     (1,635)               1.34376262E-05
    636     (1,636)               5.51832247E-06
    637     (1,637)               5.32227917E-06
    638     (1,638)               5.72104496E-06
    639     (1,639)               9.01196287E-06
    640     (1,640)               9.82258216E-06
    641     (1,641)               1.21045984E-05
    642     (1,642)               5.33572479E-06
    643     (1,643)               1.01338629E-05
    644     (1,644)               1.47779218E-05
    645     (1,645)               1.35302031E-05
    646     (1,646)               1.24972777E-05
    647     (1,647)               7.73886874E-06
    648     (1,648)               2.21428657E-05
    649     (1,649)               5.51961598E-06
    650     (1,650)               2.20253346E-04
    651     (1,651)               5.32212247E-06
    652     (1,652)               5.47790966E-06
    653     (1,653)               1.27600652E-05
    654     (1,654)               2.64553859E-05
    655     (1,655)               9.41930413E-06
    656     (1,656)               5.47873499E-06
    657     (1,657)               1.90780462E-05
    658     (1,658)               5.94764123E-06
    659     (1,659)               5.48195879E-06
    660     (1,660)               5.89228856E-06
    661     (1,661)               6.72642354E-06
    662     (1,662)               1.60408823E-05
    663     (1,663)               5.89354774E-06
    664     (1,664)               5.68227696E-06
    665     (1,665)               1.01438941E-05
    666     (1,666)               6.57502162E-06
    667     (1,667)               5.89235270E-06
    668     (1,668)               1.30728375E-05
    669     (1,669)               1.60443393E-05
    670     (1,670)               5.68233182E-06
    671     (1,671)               5.32076466E-06
    672     (1,672)               2.01444482E-05
    673     (1,673)               5.68111170E-06
    674     (1,674)               5.68338817E-06
    675     (1,675)               5.36651461E-06
    676     (1,676)               5.36857062E-06
    677     (1,677)               5.73352778E-06
    678     (1,678)               8.01701223E-06
    679     (1,679)               4.08588210E-05
    680     (1,680)               7.06397400E-04
    681     (1,681)               5.52584554E-06
    682     (1,682)               1.32116869E-05
    683     (1,683)               9.48573729E-06
    684     (1,684)               5.52796497E-06
    685     (1,685)               5.73461948E-06
    686     (1,686)               4.37108087E-03
    687     (1,687)               6.55507955E-02
    688     (1,688)               3.05609415E-02
    689     (1,689)               1.93906729E-02
    690     (1,690)               6.50653542E-02
    691     (1,691)               5.73356509E-06
    692     (1,692)               1.02940022E-05
    693     (1,693)               5.72247262E-06
    694     (1,694)               1.20575139E-03
    695     (1,695)               6.57710731E-06
    696     (1,696)               6.72877797E-06
    697     (1,697)               5.89616564E-06
    698     (1,698)               5.68433097E-06
    699     (1,699)               1.38517228E-05
    700     (1,700)               1.60477679E-05
    701     (1,701)               5.62758446E-05
    702     (1,702)               5.68654302E-06
    703     (1,703)               1.01888442E-05
    704     (1,704)               2.86504919E-02
    705     (1,705)               4.97020370E-02
    706     (1,706)               1.40250816E-02
    707     (1,707)               4.27324272E-03
    708     (1,708)               2.42874434E-02
    709     (1,709)               1.09417860E-02
    710     (1,710)               3.46494619E-02
    711     (1,711)               9.25931113E-03
    712     (1,712)               0.12841275    
    713     (1,713)               2.74713631E-05
    714     (1,714)               7.88059940E-02
    715     (1,715)               0.12994398    
    716     (1,716)               2.24790410E-04
    717     (1,717)               6.72847566E-06
    718     (1,718)               4.47977354E-03
    719     (1,719)               5.32494777E-06
    720     (1,720)               9.91498241E-04
    721     (1,721)               1.05020263E-06
    722     (1,722)               3.81777383E-02
    723     (1,723)               8.13758980E-03
    724     (1,724)               1.34556837E-06
    725     (1,725)               1.72466185E-03
    726     (1,726)               0.12525480    
    727     (1,727)               3.03387584E-04
    728     (1,728)               1.99397482E-06
    729     (1,729)               5.62085454E-04
    730     (1,730)               7.90106108E-04
    731     (1,731)               3.31939748E-03
    732     (1,732)               3.83018709E-04
    733     (1,733)               0.0000000     
    734     (1,734)               5.08967028E-04
    735     (1,735)               4.93469897E-04
    736     (1,736)               7.81539657E-04
    737     (1,737)               1.34389388E-04
    738     (1,738)               4.60089671E-07
    739     (1,739)               4.88117712E-03
    740     (1,740)               7.40516783E-07
    741     (1,741)               8.03870549E-05
    742     (1,742)               5.83578581E-04
    743     (1,743)               6.36182214E-03
    744     (1,744)               5.01014058E-04
    745     (1,745)               8.92798060E-02
    746     (1,746)               4.69708729E-07
    747     (1,747)               7.26395868E-04
    748     (1,748)               7.76312243E-04
    749     (1,749)               4.11578903E-03
    750     (1,750)               0.0000000     
    751     (1,751)               5.21587731E-02
    752     (1,752)               5.79547713E-04
    753     (1,753)               0.13486539    
    754     (1,754)               5.84065670E-04
    755     (1,755)               4.51262026E-02
    756     (1,756)               5.02811031E-02
    757     (1,757)               3.50031744E-03
    758     (1,758)               6.76315152E-02
    759     (1,759)               3.76249513E-03
    760     (1,760)               0.0000000     
    761     (1,761)               7.99256231E-04
    762     (1,762)               6.46265830E-04
    763     (1,763)               0.0000000     
    764     (1,764)               8.91238292E-02
    765     (1,765)               1.09422531E-02
    766     (1,766)               3.76772476E-04
    767     (1,767)               6.64834834E-04
    768     (1,768)               5.62750677E-07
    769     (1,769)               2.60798166E-05
    770     (1,770)               2.36639577E-02
    771     (1,771)               0.0000000     
    772     (1,772)               2.20932202E-03
    773     (1,773)               2.40575577E-03
    774     (1,774)               0.0000000     
    775     (1,775)               7.17266446E-03
    776     (1,776)               3.78311925E-03
    777     (1,777)               1.01683146E-03
    778     (1,778)               6.46425364E-04
    779     (1,779)               4.39706256E-06
    780     (1,780)               2.25205634E-06
    781     (1,781)               6.50524602E-04
    782     (1,782)               9.13625211E-04
    783     (1,783)               0.0000000     
    784     (1,784)               6.51717197E-04
    785     (1,785)               0.0000000     
    786     (1,786)               0.0000000     
    787     (1,787)               9.58524698E-03
    788     (1,788)               3.42663564E-04
    789     (1,789)               4.39196159E-04
    790     (1,790)               0.0000000     
    791     (1,791)               5.31401087E-03
    792     (1,792)               6.82055840E-04
    793     (1,793)               4.60129331E-04
    794     (1,794)               0.0000000     
    795     (1,795)               4.67266147E-04
    796     (1,796)               2.68762600E-04
    797     (1,797)               0.0000000     
    798     (1,798)               4.07179631E-07
    799     (1,799)               3.07969546E-04
    800     (1,800)               4.33652230E-04
    801     (1,801)               3.30421630E-04
    802     (1,802)               5.89202286E-06
    803     (1,803)               4.06652798E-04
    804     (1,804)               4.67146487E-04
    805     (1,805)               0.0000000     
    806     (1,806)               4.40496268E-04
    807     (1,807)               0.0000000     
    808     (1,808)               5.91746153E-04
    809     (1,809)               1.94516869E-03
    810     (1,810)               8.70234951E-04
    811     (1,811)               4.30161976E-02
    812     (1,812)               4.19593196E-04
    813     (1,813)               2.18558194E-03
    814     (1,814)               1.98336090E-06
    815     (1,815)               4.10599198E-03
    816     (1,816)               5.18105857E-05
    817     (1,817)               6.01645243E-04
    818     (1,818)               4.27306963E-04
    819     (1,819)               1.67605287E-03
    820     (1,820)               1.50237590E-02
    821     (1,821)               0.0000000     
    822     (1,822)               2.81478039E-04
    823     (1,823)               5.29837897E-04
    824     (1,824)               6.89908024E-04
    825     (1,825)               1.08044918E-02
    826     (1,826)               8.56517864E-03
    827     (1,827)               4.12199466E-04
    828     (1,828)               0.0000000     
    829     (1,829)               6.25734963E-03
    830     (1,830)               2.13062071E-03
    831     (1,831)               0.0000000     
    832     (1,832)               1.01944957E-02
    833     (1,833)               1.81684059E-02
    834     (1,834)               1.63602244E-02
    835     (1,835)               7.82444393E-03
    836     (1,836)               0.0000000     
    837     (1,837)               3.62047966E-04
    838     (1,838)               1.98728922E-03
    839     (1,839)               2.54208014E-02
    840     (1,840)               1.14259158E-03
    841     (1,841)               3.45383249E-02
    842     (1,842)               5.39342493E-04
    843     (1,843)               0.0000000     
    844     (1,844)               1.07730637E-06
    845     (1,845)               6.72052326E-03
    846     (1,846)               0.0000000     
    847     (1,847)               0.0000000     
    848     (1,848)               2.63783033E-03
    849     (1,849)               9.67776728E-05
    850     (1,850)               0.0000000     
    851     (1,851)               4.18971653E-04
    852     (1,852)               4.96687950E-04
    853     (1,853)               4.24861189E-04
    854     (1,854)               1.46627818E-02
    855     (1,855)               5.90753576E-04
    856     (1,856)               1.23154476E-03
    857     (1,857)               4.94882868E-06
    858     (1,858)               1.31330198E-04
    859     (1,859)               4.98043734E-03
    860     (1,860)               3.80169464E-03
    861     (1,861)               0.0000000     
    862     (1,862)               1.24913433E-02
    863     (1,863)               5.67030709E-04
    864     (1,864)               1.20684074E-02
    865     (1,865)               4.11916729E-04
    866     (1,866)               4.36363523E-04
    867     (1,867)               1.07084385E-03
    868     (1,868)               7.18585981E-04
    869     (1,869)               6.61630596E-04
    870     (1,870)               4.41805361E-04
    871     (1,871)               5.16274582E-04
    872     (1,872)               0.0000000     
    873     (1,873)               1.16453928E-02
    874     (1,874)               0.0000000     
    875     (1,875)               0.0000000     
    876     (1,876)               5.24128813E-04
    877     (1,877)               1.06967098E-02
    878     (1,878)               3.41749176E-04
    879     (1,879)               5.40055305E-04
    880     (1,880)               2.93749112E-03
    881     (1,881)               4.66252104E-02
    882     (1,882)               6.55819571E-03
    883     (1,883)               3.85424999E-04
    884     (1,884)               0.0000000     
    885     (1,885)               0.0000000     
    886     (1,886)               1.60831034E-02
    887     (1,887)               0.0000000     
    888     (1,888)               2.31999904E-02
    889     (1,889)               1.28529540E-02
    890     (1,890)               8.51045894E-03
    891     (1,891)               0.0000000     
    892     (1,892)               8.56358764E-03
    893     (1,893)               1.81996643E-02
    894     (1,894)               3.24870291E-02
    895     (1,895)               3.13847496E-02
    896     (1,896)               5.49507230E-02
    897     (1,897)               7.56286032E-02
    898     (1,898)               4.88304143E-03
    899     (1,899)               2.06466221E-02
    900     (1,900)               1.28271360E-03
    901     (1,901)               5.06617739E-02
    902     (1,902)               5.69543586E-03
    903     (1,903)               2.42976052E-02
    904     (1,904)               1.29748437E-05
    905     (1,905)               4.47153280E-04
    906     (1,906)               9.82367212E-05
    907     (1,907)               7.05310192E-04
    908     (1,908)               5.69511451E-04
    909     (1,909)               0.0000000     
    910     (1,910)               0.0000000     
    911     (1,911)               9.65829302E-03
    912     (1,912)               0.0000000     
    913     (1,913)               0.0000000     
    914     (1,914)               7.10071762E-04
    915     (1,915)               4.75522753E-04
    916     (1,916)               5.12827746E-04
    917     (1,917)               0.0000000     
    918     (1,918)               5.96940758E-04
    919     (1,919)               0.0000000     
    920     (1,920)               4.18691726E-04
    921     (1,921)               1.97557822E-04
    922     (1,922)               4.19726432E-04
    923     (1,923)               0.0000000     
    924     (1,924)               3.78541951E-04
    925     (1,925)               0.0000000     
    926     (1,926)               1.22791310E-05
    927     (1,927)               1.30872595E-04
    928     (1,928)               0.0000000     
    929     (1,929)               3.12880006E-03
    930     (1,930)               7.26870979E-03
    931     (1,931)               0.0000000     
    932     (1,932)               0.0000000     
    933     (1,933)               0.0000000     
    934     (1,934)               0.0000000     
    935     (1,935)               7.80034338E-05
    936     (1,936)               5.18457074E-05
    937     (1,937)               4.94214293E-05
    938     (1,938)               5.53564149E-04
    939     (1,939)               1.47406601E-04
    940     (1,940)               2.02031725E-04
    941     (1,941)               0.0000000     
    942     (1,942)               5.16445119E-05
    943     (1,943)               1.08365055E-03
    944     (1,944)               1.18109798E-04
    945     (1,945)               5.20789489E-03
    946     (1,946)               1.63131992E-04
    947     (1,947)               0.0000000     
    948     (1,948)               0.0000000     
    949     (1,949)               0.0000000     
    950     (1,950)               2.55771288E-05
    951     (1,951)               3.20764181E-05
    952     (1,952)               4.59174411E-04
    953     (1,953)               6.77962585E-05
    954     (1,954)               0.0000000     
    955     (1,955)               1.16669231E-05
    956     (1,956)               0.0000000     
    957     (1,957)               7.04350277E-04
    958     (1,958)               1.71184747E-04
    959     (1,959)               9.72052352E-06
    960     (1,960)               4.56299077E-04
    961     (1,961)               7.43448034E-04
    962     (1,962)               0.0000000     
    963     (1,963)               3.39029462E-04
    964     (1,964)               4.60521473E-04
    965     (1,965)               0.0000000     
    966     (1,966)               0.0000000     
    967     (1,967)               3.99104550E-05
    968     (1,968)               2.92810148E-04
    969     (1,969)               3.69031772E-04
    970     (1,970)               2.67102643E-05
    971     (1,971)               5.52317766E-04
    972     (1,972)               6.71181642E-04
    973     (1,973)               8.40556103E-07
    974     (1,974)               1.60740021E-04
    975     (1,975)               1.11821348E-04
    976     (1,976)               5.39996632E-04
    977     (1,977)               5.83020823E-04
    978     (1,978)               3.32417429E-07
    979     (1,979)               0.0000000     
    980     (1,980)               0.0000000     
    981     (1,981)               2.66320709E-04
    982     (1,982)               0.0000000     
    983     (1,983)               4.52169709E-04
    984     (1,984)               0.0000000     
    985     (1,985)               4.29329999E-04
    986     (1,986)               4.59869400E-04
    987     (1,987)               0.0000000     
    988     (1,988)               2.94973285E-04
    989     (1,989)               0.0000000     
    990     (1,990)               2.48327323E-04
    991     (1,991)               0.0000000     
    992     (1,992)               6.80592022E-04
    993     (1,993)               2.33104299E-03
    994     (1,994)               0.0000000     
    995     (1,995)               2.69836551E-04
    996     (1,996)               4.48360554E-04
    997     (1,997)               5.14409791E-03
    998     (1,998)               9.16417657E-03
    999     (1,999)               8.78615619E-03
    1000    (1,1000)              0.0000000     
    1001    (1,1001)              0.0000000     
    1002    (1,1002)              5.18172871E-04
    1003    (1,1003)              6.92331094E-04
    1004    (1,1004)              2.36355028E-04
    1005    (1,1005)              2.77214973E-04
    1006    (1,1006)              0.0000000     
    1007    (1,1007)              0.0000000     
    1008    (1,1008)              0.0000000     
    1009    (1,1009)              0.0000000     
    1010    (1,1010)              0.0000000     
    1011    (1,1011)              0.0000000     
    1012    (1,1012)              6.31147695E-04
    1013    (1,1013)              4.54369173E-03
    1014    (1,1014)              5.48033992E-05
    1015    (1,1015)              3.62112126E-03
    1016    (1,1016)              8.16560701E-03
    1017    (1,1017)              3.28139524E-03
    1018    (1,1018)              0.0000000     
    1019    (1,1019)              0.0000000     
    1020    (1,1020)              7.78919372E-03
    1021    (1,1021)              3.93018835E-03
    1022    (1,1022)              0.0000000     
    1023    (1,1023)              1.53054117E-03
    1024    (1,1024)              0.0000000     
    1025    (1,1025)              0.0000000     
    1026    (1,1026)              0.0000000     
    1027    (1,1027)              0.0000000     
    1028    (1,1028)              0.0000000     
    1029    (1,1029)              0.0000000     
    1030    (1,1030)              8.97328269E-03
    1031    (1,1031)              7.02151041E-02
    1032    (1,1032)              0.0000000     
    1033    (1,1033)              2.10022070E-03
    1034    (1,1034)              0.0000000     
    1035    (1,1035)              1.12480717E-02
    1036    (1,1036)              4.73346517E-03
    1037    (1,1037)              3.38307988E-03
    1038    (1,1038)              0.0000000     
    1039    (1,1039)              2.33944600E-04
    1040    (1,1040)              8.03081973E-04
    1041    (1,1041)              0.0000000     
    1042    (1,1042)              4.10728653E-04
    1043    (1,1043)              4.05125600E-05
    1044    (1,1044)              5.16124207E-04
    1045    (1,1045)              4.36486057E-04
    1046    (1,1046)              0.0000000     
    1047    (1,1047)              7.87441468E-04
    1048    (1,1048)              2.29385648E-05
    1049    (1,1049)              8.03630029E-04
    1050    (1,1050)              2.80409612E-03
    1051    (1,1051)              5.19339232E-04
    1052    (1,1052)              0.0000000     
    1053    (1,1053)              3.63333803E-04
    1054    (1,1054)              5.20706805E-04
    1055    (1,1055)              2.93586237E-04
    1056    (1,1056)              1.15075211E-03
    1057    (1,1057)              0.0000000     
    1058    (1,1058)              5.51885439E-04
    1059    (1,1059)              3.79263238E-04
    1060    (1,1060)              0.0000000     
    1061    (1,1061)              1.79553571E-04
    1062    (1,1062)              5.95559462E-04
    1063    (1,1063)              2.59734723E-04
    1064    (1,1064)              3.31948501E-04
    1065    (1,1065)              0.0000000     
    1066    (1,1066)              3.11807179E-04
    1067    (1,1067)              3.57719085E-04
    1068    (1,1068)              1.33374585E-04
    1069    (1,1069)              0.0000000     
    1070    (1,1070)              5.35852564E-04
    1071    (1,1071)              1.62478907E-07
    1072    (1,1072)              5.15614150E-04
    1073    (1,1073)              1.87287593E-06
    1074    (1,1074)              1.33094816E-04
    1075    (1,1075)              4.41338147E-04
    1076    (1,1076)              5.70676323E-03
    1077    (1,1077)              0.0000000     
    1078    (1,1078)              0.0000000     
    1079    (1,1079)              0.0000000     
    1080    (1,1080)              9.94348360E-05
    1081    (1,1081)              2.72155263E-04
    1082    (1,1082)              1.19852650E-03
    1083    (1,1083)              0.0000000     
    1084    (1,1084)              1.02906234E-03
    1085    (1,1085)              5.32673855E-03
    1086    (1,1086)              6.47966134E-04
    1087    (1,1087)              1.06804334E-02
    1088    (1,1088)              8.68367985E-05
    1089    (1,1089)              0.0000000     
    1090    (1,1090)              4.02225351E-02
    1091    (1,1091)              5.17004716E-02
    1092    (1,1092)              5.13903445E-03
    1093    (1,1093)              2.65156208E-02
    1094    (1,1094)              2.24451927E-02
    1095    (1,1095)              2.20976231E-02
    1096    (1,1096)              0.0000000     
    1097    (1,1097)              3.36132521E-04
    1098    (1,1098)              3.36957909E-04
    1099    (1,1099)              0.0000000     
    1100    (1,1100)              1.24344302E-04
    1101    (1,1101)              0.0000000     
    1102    (1,1102)              3.87086241E-04
    1103    (1,1103)              1.32814702E-02
    1104    (1,1104)              0.0000000     
    1105    (1,1105)              0.0000000     
    1106    (1,1106)              2.73395370E-04
    1107    (1,1107)              2.35891635E-02
    1108    (1,1108)              2.69096660E-02
    1109    (1,1109)              0.0000000     
    1110    (1,1110)              2.49465705E-03
    1111    (1,1111)              2.26824463E-02
    1112    (1,1112)              3.15002523E-02
    1113    (1,1113)              8.32661565E-03
    1114    (1,1114)              8.40790116E-03
    1115    (1,1115)              3.14970461E-02
    1116    (1,1116)              0.0000000     
    1117    (1,1117)              1.64028695E-03
    1118    (1,1118)              1.30380196E-03
    1119    (1,1119)              0.0000000     
    1120    (1,1120)              0.0000000     
    1121    (1,1121)              5.06120802E-03
    1122    (1,1122)              1.08606360E-02
    1123    (1,1123)              0.0000000     
    1124    (1,1124)              0.0000000     
    1125    (1,1125)              2.15682769E-03
    1126    (1,1126)              0.0000000     
    1127    (1,1127)              8.73000973E-03
    1128    (1,1128)              0.0000000     
    1129    (1,1129)              4.24866806E-02
    1130    (1,1130)              0.0000000     
    1131    (1,1131)              0.0000000     
    1132    (1,1132)              3.56111124E-04
    1133    (1,1133)              3.14062936E-04
    1134    (1,1134)              1.73692931E-04
    1135    (1,1135)              1.06696891E-04
    1136    (1,1136)              7.27944454E-04
    1137    (1,1137)              3.82427687E-04
    1138    (1,1138)              2.03547079E-04
    1139    (1,1139)              8.16047423E-04
    1140    (1,1140)              1.99997474E-04
    1141    (1,1141)              4.01751217E-05
    1142    (1,1142)              5.23591723E-04
    1143    (1,1143)              4.43406056E-07
    1144    (1,1144)              3.72334234E-04
    1145    (1,1145)              1.27489765E-05
    1146    (1,1146)              0.0000000     
    1147    (1,1147)              1.38522049E-04
    1148    (1,1148)              7.11102767E-04
    1149    (1,1149)              1.55841917E-04
    1150    (1,1150)              4.78270778E-04
    1151    (1,1151)              5.02633392E-05
    1152    (1,1152)              2.47581109E-04
    1153    (1,1153)              2.47412820E-05
    1154    (1,1154)              5.55629589E-04
    1155    (1,1155)              4.86506406E-04
    1156    (1,1156)              2.68153851E-04
    1157    (1,1157)              0.0000000     
    1158    (1,1158)              1.22854016E-05
    1159    (1,1159)              0.0000000     
    1160    (1,1160)              4.92575591E-04
    1161    (1,1161)              1.26678813E-05
    1162    (1,1162)              1.32402967E-05
    1163    (1,1163)              1.22875264E-05
    1164    (1,1164)              3.35439150E-04
    1165    (1,1165)              2.16710955E-06
    1166    (1,1166)              3.25615573E-04
    1167    (1,1167)              2.39739460E-04
    1168    (1,1168)              0.0000000     
    1169    (1,1169)              7.71031258E-04
    1170    (1,1170)              0.0000000     
    1171    (1,1171)              1.10521192E-05
    1172    (1,1172)              4.68690370E-06
    1173    (1,1173)              0.0000000     
    1174    (1,1174)              2.16633207E-04
    1175    (1,1175)              3.03760038E-03
    1176    (1,1176)              7.15871522E-08
    1177    (1,1177)              0.0000000     
    1178    (1,1178)              4.01390634E-03
    1179    (1,1179)              0.0000000     
    1180    (1,1180)              1.97909075E-03
    1181    (1,1181)              4.56705549E-03
    1182    (1,1182)              6.50810197E-03
    1183    (1,1183)              5.62125246E-03
    1184    (1,1184)              5.35129957E-03
    1185    (1,1185)              7.45446745E-05
    1186    (1,1186)              5.28288694E-07
    1187    (1,1187)              2.34560048E-06
    1188    (1,1188)              6.81996620E-04
    1189    (1,1189)              0.0000000     
    1190    (1,1190)              0.0000000     
    1191    (1,1191)              0.0000000     
    1192    (1,1192)              0.0000000     
    1193    (1,1193)              0.0000000     
    1194    (1,1194)              3.60751498E-04
    1195    (1,1195)              0.0000000     
    1196    (1,1196)              0.0000000     
    1197    (1,1197)              0.0000000     
    1198    (1,1198)              1.01688286E-02
    1199    (1,1199)              1.25278132E-02
    1200    (1,1200)              0.0000000     
    1201    (1,1201)              0.0000000     
    1202    (1,1202)              6.94964966E-03
    1203    (1,1203)              1.59969369E-02
    1204    (1,1204)              0.0000000     
    1205    (1,1205)              8.05196671E-03
    1206    (1,1206)              0.0000000     
    1207    (1,1207)              0.0000000     
    1208    (1,1208)              3.26307397E-03
    1209    (1,1209)              5.07651121E-03
    1210    (1,1210)              0.0000000     
    1211    (1,1211)              5.12586279E-03
    1212    (1,1212)              3.45743738E-03
    1213    (1,1213)              0.0000000     
    1214    (1,1214)              0.0000000     
    1215    (1,1215)              2.42343963E-03
    1216    (1,1216)              0.0000000     
    1217    (1,1217)              1.02680472E-02
    1218    (1,1218)              0.0000000     
    1219    (1,1219)              4.07891811E-03
    1220    (1,1220)              0.0000000     
    1221    (1,1221)              2.12030382E-04
    1222    (1,1222)              2.00998643E-05
    1223    (1,1223)              0.0000000     
    1224    (1,1224)              9.32303387E-06
    1225    (1,1225)              0.0000000     
    1226    (1,1226)              4.94197343E-07
    1227    (1,1227)              9.72182289E-03
    1228    (1,1228)              3.16332898E-05
    1229    (1,1229)              1.40194974E-04
    1230    (1,1230)              8.11719206E-05
    1231    (1,1231)              2.81217528E-07
    1232    (1,1232)              0.0000000     
    1233    (1,1233)              0.0000000     
    1234    (1,1234)              4.78436396E-05
    1235    (1,1235)              3.02496433E-04
    1236    (1,1236)              8.66006741E-06
    1237    (1,1237)              3.63801597E-04
    1238    (1,1238)              2.96278930E-04
    1239    (1,1239)              0.0000000     
    1240    (1,1240)              4.88167303E-06
    1241    (1,1241)              0.0000000     
    1242    (1,1242)              4.96181598E-03
    1243    (1,1243)              7.89489453E-03
    1244    (1,1244)              0.0000000     
    1245    (1,1245)              9.31581410E-03
    1246    (1,1246)              4.65462049E-03
    1247    (1,1247)              2.67136704E-03
    1248    (1,1248)              0.0000000     
    1249    (1,1249)              4.13428105E-03
    1250    (1,1250)              6.03684206E-03
    1251    (1,1251)              0.0000000     
    1252    (1,1252)              4.57586233E-03
    1253    (1,1253)              0.0000000     
    1254    (1,1254)              0.0000000     
    1255    (1,1255)              0.0000000     
    1256    (1,1256)              0.0000000     
    1257    (1,1257)              3.86930148E-03
    1258    (1,1258)              0.0000000     
    1259    (1,1259)              4.53496853E-03
    1260    (1,1260)              0.0000000     
    1261    (1,1261)              4.57586634E-03
    1262    (1,1262)              0.0000000     
    1263    (1,1263)              5.45976140E-03
    1264    (1,1264)              0.0000000     
    1265    (1,1265)              6.97530480E-03
    1266    (1,1266)              3.47588671E-07
    1267    (1,1267)              0.10338147    
    1268    (1,1268)              2.88596657E-04
    1269    (1,1269)              1.64698179E-05
    1270    (1,1270)              8.62969271E-05
    1271    (1,1271)              2.72133698E-04
    1272    (1,1272)              2.03639698E-04
    1273    (1,1273)              2.91102641E-04
    1274    (1,1274)              0.0000000     
    1275    (1,1275)              3.07152220E-04
    1276    (1,1276)              1.45431636E-05
    1277    (1,1277)              1.91037142E-05
    1278    (1,1278)              1.64589284E-04
    1279    (1,1279)              4.20028035E-06
    1280    (1,1280)              3.77198754E-04
    1281    (1,1281)              6.63405211E-04
    1282    (1,1282)              0.0000000     
    1283    (1,1283)              2.32501190E-04
    1284    (1,1284)              1.83503698E-05
    1285    (1,1285)              0.0000000     
    1286    (1,1286)              7.11373378E-04
    1287    (1,1287)              0.0000000     
    1288    (1,1288)              2.68593723E-04
    1289    (1,1289)              6.65334802E-04
    1290    (1,1290)              0.0000000     
    1291    (1,1291)              7.16533939E-04
    1292    (1,1292)              6.15151955E-04
    1293    (1,1293)              3.12034759E-03
    1294    (1,1294)              2.16954648E-03
    1295    (1,1295)              0.0000000     
    1296    (1,1296)              0.0000000     
    1297    (1,1297)              4.38179052E-04
    1298    (1,1298)              0.0000000     
    1299    (1,1299)              5.09012094E-04
    1300    (1,1300)              4.98174686E-04
    1301    (1,1301)              0.0000000     
    1302    (1,1302)              9.91344664E-04
    1303    (1,1303)              2.52721395E-04
    1304    (1,1304)              5.02465293E-04
    1305    (1,1305)              1.86653777E-04
    1306    (1,1306)              0.0000000     
    1307    (1,1307)              4.37488849E-04
    1308    (1,1308)              3.88382176E-04
    1309    (1,1309)              0.0000000     
    1310    (1,1310)              1.43795773E-03
    1311    (1,1311)              0.0000000     
    1312    (1,1312)              8.17027217E-04
    1313    (1,1313)              0.0000000     
    1314    (1,1314)              0.0000000     
    1315    (1,1315)              5.68834374E-05
    1316    (1,1316)              3.55851294E-04
    1317    (1,1317)              7.22244026E-04
    1318    (1,1318)              7.10120474E-06
    1319    (1,1319)              0.0000000     
    1320    (1,1320)              2.45903790E-04
    1321    (1,1321)              3.73354636E-06
    1322    (1,1322)              4.41836062E-04
    1323    (1,1323)              0.0000000     
    1324    (1,1324)              1.44678195E-05
    1325    (1,1325)              1.12213849E-05
    1326    (1,1326)              3.59306897E-04
    1327    (1,1327)              7.77162061E-05
    1328    (1,1328)              7.06143538E-04
    1329    (1,1329)              1.36400818E-04
    1330    (1,1330)              3.35192449E-05
    1331    (1,1331)              2.71490702E-05
    1332    (1,1332)              3.34993917E-04
    1333    (1,1333)              5.49022076E-05
    1334    (1,1334)              2.07713859E-05
    1335    (1,1335)              4.87195770E-04
    1336    (1,1336)              0.0000000     
    1337    (1,1337)              5.81248333E-05
    1338    (1,1338)              4.63674707E-05
    1339    (1,1339)              3.01865918E-05
    1340    (1,1340)              9.21227375E-05
    1341    (1,1341)              3.35009816E-05
    1342    (1,1342)              1.60703220E-05
    1343    (1,1343)              1.12573067E-04
    1344    (1,1344)              6.28204754E-05
    1345    (1,1345)              1.13445251E-04
    1346    (1,1346)              0.0000000     
    1347    (1,1347)              1.66603741E-05
    1348    (1,1348)              8.85059371E-06
    1349    (1,1349)              1.68490571E-05
    1350    (1,1350)              4.42572978E-05
    1351    (1,1351)              2.76247679E-05
    1352    (1,1352)              3.46688764E-04
    1353    (1,1353)              0.0000000     
    1354    (1,1354)              4.84420613E-04
    1355    (1,1355)              6.95238006E-04
    1356    (1,1356)              1.89496290E-03
    1357    (1,1357)              2.01226585E-04
    1358    (1,1358)              3.63613861E-04
    1359    (1,1359)              0.0000000     
    1360    (1,1360)              8.66968867E-03
    1361    (1,1361)              0.0000000     
    1362    (1,1362)              8.58307158E-03
    1363    (1,1363)              6.01345602E-03
    1364    (1,1364)              0.0000000     
    1365    (1,1365)              3.28933785E-03
    1366    (1,1366)              0.0000000     
    1367    (1,1367)              2.19249751E-04
    1368    (1,1368)              0.0000000     
    1369    (1,1369)              5.31648013E-04
    1370    (1,1370)              3.93068856E-04
    1371    (1,1371)              0.0000000     
    1372    (1,1372)              2.53744610E-04
    1373    (1,1373)              0.0000000     
    1374    (1,1374)              2.83440381E-04
    1375    (1,1375)              0.0000000     
    1376    (1,1376)              0.0000000     
    1377    (1,1377)              3.63286604E-03
    1378    (1,1378)              0.0000000     
    1379    (1,1379)              0.0000000     
    1380    (1,1380)              2.44765013E-03
    1381    (1,1381)              3.44883880E-03
    1382    (1,1382)              0.0000000     
    1383    (1,1383)              1.43844606E-02
    1384    (1,1384)              9.77703622E-03
    1385    (1,1385)              0.0000000     
    1386    (1,1386)              0.0000000     
    1387    (1,1387)              3.66153507E-03
    1388    (1,1388)              1.06186765E-02
    1389    (1,1389)              0.0000000     
    1390    (1,1390)              2.16897094E-03
    1391    (1,1391)              1.26623019E-02
    1392    (1,1392)              1.40242551E-04
    1393    (1,1393)              0.0000000     
    1394    (1,1394)              9.01800876E-03
    1395    (1,1395)              0.0000000     
    1396    (1,1396)              0.0000000     
    1397    (1,1397)              1.81563354E-03
    1398    (1,1398)              0.0000000     
    1399    (1,1399)              0.0000000     
    1400    (1,1400)              1.23608049E-02
    1401    (1,1401)              2.24344019E-03
    1402    (1,1402)              0.0000000     
    1403    (1,1403)              2.01369091E-04
    1404    (1,1404)              4.73669102E-06
    1405    (1,1405)              3.65516257E-04
    1406    (1,1406)              2.08473020E-04
    1407    (1,1407)              4.95562996E-04
    1408    (1,1408)              2.71748529E-04
    1409    (1,1409)              1.37462934E-04
    1410    (1,1410)              0.0000000     
    1411    (1,1411)              5.79027217E-04
    1412    (1,1412)              0.0000000     
    1413    (1,1413)              5.85449320E-04
    1414    (1,1414)              7.61383897E-04
    1415    (1,1415)              2.06143098E-04
    1416    (1,1416)              5.64000819E-04
    1417    (1,1417)              1.42354187E-05
    1418    (1,1418)              0.0000000     
    1419    (1,1419)              0.0000000     
    1420    (1,1420)              0.0000000     
    1421    (1,1421)              5.50122301E-04
    1422    (1,1422)              8.27958206E-04
    1423    (1,1423)              1.44131108E-06
    1424    (1,1424)              4.87643160E-04
    1425    (1,1425)              9.33892921E-04
    1426    (1,1426)              2.23984835E-04
    1427    (1,1427)              0.0000000     
    1428    (1,1428)              0.0000000     
    1429    (1,1429)              2.47926511E-04
    1430    (1,1430)              2.71582583E-04
    1431    (1,1431)              4.15726078E-04
    1432    (1,1432)              7.70638056E-04
    1433    (1,1433)              0.0000000     
    1434    (1,1434)              1.37232129E-06
    1435    (1,1435)              0.0000000     
    1436    (1,1436)              4.07715079E-04
    1437    (1,1437)              6.68150757E-04
    1438    (1,1438)              1.01409049E-04
    1439    (1,1439)              2.68482009E-04
    1440    (1,1440)              1.24315857E-04
    1441    (1,1441)              7.51834310E-04
    1442    (1,1442)              0.0000000     
    1443    (1,1443)              5.85361320E-04
    1444    (1,1444)              0.0000000     
    1445    (1,1445)              6.64499218E-04
    1446    (1,1446)              8.30456325E-04
    1447    (1,1447)              0.0000000     
    1448    (1,1448)              3.74495093E-04
    1449    (1,1449)              8.67695980E-03
    1450    (1,1450)              6.13432730E-04
    1451    (1,1451)              7.78080771E-03
[...]
   12462    (1,12462)             8.22899828E-02
   12463    (1,12463)             0.19279269    
   12464    (1,12464)             0.16002799    
   12465    (1,12465)             0.13870050    
   12466    (1,12466)             0.10603827    
   12467    (1,12467)             0.11569516    
   12468    (1,12468)             9.58089524E-02
   12469    (1,12469)             0.12430880    
   12470    (1,12470)             0.11722611    
   12471    (1,12471)             0.12313325    
   12472    (1,12472)             0.12561469    
   12473    (1,12473)             0.15039333    
   12474    (1,12474)             0.11320912    
   12475    (1,12475)             0.10250581    
   12476    (1,12476)             0.10955918    
   12477    (1,12477)             0.15640746    
   12478    (1,12478)             0.10316670    
   12479    (1,12479)             0.11722169    
   12480    (1,12480)             8.66713616E-02
   12481    (1,12481)             0.11469664    
   12482    (1,12482)             0.12821375    
   12483    (1,12483)             0.15815341    
   12484    (1,12484)             0.15013927    
   12485    (1,12485)             0.12345334    
   12486    (1,12486)             0.15300054    
   12487    (1,12487)             0.12414172    
   12488    (1,12488)             0.12863883    
   12489    (1,12489)             9.93441343E-02
   12490    (1,12490)             0.13204810    
   12491    (1,12491)             0.14354866    
   12492    (1,12492)             9.09631044E-02
   12493    (1,12493)             0.10632382    
   12494    (1,12494)             8.47116082E-02
   12495    (1,12495)             0.10038021    
   12496    (1,12496)             0.10361961    
   12497    (1,12497)             0.10060181    
   12498    (1,12498)             0.12869544    
   12499    (1,12499)             9.82152879E-02
   12500    (1,12500)             0.13072832    
   12501    (1,12501)             0.15166731    
   12502    (1,12502)             0.16233969    
   12503    (1,12503)             7.59799845E-02
   12504    (1,12504)             9.94348531E-02
   12505    (1,12505)             0.16493890    
   12506    (1,12506)             0.11821746    
   12507    (1,12507)             0.11729922    
   12508    (1,12508)             0.12824938    
   12509    (1,12509)             0.15225161    
   12510    (1,12510)             0.11075086    
   12511    (1,12511)             0.13619468    
   12512    (1,12512)             0.16059047    
   12513    (1,12513)             0.13487812    
   12514    (1,12514)             0.15640256    
   12515    (1,12515)             0.10567926    
   12516    (1,12516)             0.16766649    
   12517    (1,12517)             0.11284461    
   12518    (1,12518)             0.10751558    
   12519    (1,12519)             0.14527281    
   12520    (1,12520)             0.11457471    
   12521    (1,12521)             0.13562221    
   12522    (1,12522)             0.10049354    
   12523    (1,12523)             0.14146622    
   12524    (1,12524)             9.81083965E-02
   12525    (1,12525)             8.70058675E-02
   12526    (1,12526)             0.14907191    
   12527    (1,12527)             0.12067096    
   12528    (1,12528)             0.14943009    
   12529    (1,12529)             0.12620142    
   12530    (1,12530)             0.11328714    
   12531    (1,12531)             0.13458600    
   12532    (1,12532)             0.10442241    
   12533    (1,12533)             0.12611875    
   12534    (1,12534)             0.12346679    
   12535    (1,12535)             0.13917835    
   12536    (1,12536)             8.73358004E-02
   12537    (1,12537)             9.52170710E-02
   12538    (1,12538)             0.11481355    
   12539    (1,12539)             0.11389734    
   12540    (1,12540)             8.80779049E-02
   12541    (1,12541)             0.11737698    
   12542    (1,12542)             0.11198997    
   12543    (1,12543)             0.13208659    
   12544    (1,12544)             0.10268749    
   12545    (1,12545)             0.11051400    
   12546    (1,12546)             8.60329723E-02
   12547    (1,12547)             0.11688447    
   12548    (1,12548)             0.13115716    
   12549    (1,12549)             0.13393077    
   12550    (1,12550)             0.10817979    
   12551    (1,12551)             0.15572026    
   12552    (1,12552)             0.11435113    
   12553    (1,12553)             0.12878799    
   12554    (1,12554)             0.10886945    
   12555    (1,12555)             7.30261254E-02
   12556    (1,12556)             8.60524563E-02
   12557    (1,12557)             0.13356723    
   12558    (1,12558)             0.12883083    
   12559    (1,12559)             0.12401252    
   12560    (1,12560)             0.14764605    
   12561    (1,12561)             0.11103818    
   12562    (1,12562)             0.15918931    
   12563    (1,12563)             8.14129583E-02
   12564    (1,12564)             0.13230476    
   12565    (1,12565)             0.14495735    
   12566    (1,12566)             9.84665413E-02
   12567    (1,12567)             9.93236725E-02
   12568    (1,12568)             0.17897366    
   12569    (1,12569)             0.12589894    
   12570    (1,12570)             0.13658234    
   12571    (1,12571)             0.10250834    
   12572    (1,12572)             8.96363816E-02
   12573    (1,12573)             7.68220054E-02
   12574    (1,12574)             0.11174366    
   12575    (1,12575)             0.14363678    
   12576    (1,12576)             0.12038930    
   12577    (1,12577)             7.95027124E-02
   12578    (1,12578)             7.09665081E-02
   12579    (1,12579)             7.62332973E-02
   12580    (1,12580)             0.10018225    
   12581    (1,12581)             0.10844027    
   12582    (1,12582)             0.12811893    
   12583    (1,12583)             0.10806778    
   12584    (1,12584)             0.16053927    
   12585    (1,12585)             0.14694471    
   12586    (1,12586)             0.10441026    
   12587    (1,12587)             0.11122169    
   12588    (1,12588)             0.11430091    
   12589    (1,12589)             0.10230836    
   12590    (1,12590)             9.74368021E-02
   12591    (1,12591)             7.74755173E-02
   12592    (1,12592)             8.15501762E-02
   12593    (1,12593)             0.16056965    
   12594    (1,12594)             0.17426835    
   12595    (1,12595)             0.12137497    
   12596    (1,12596)             0.17412791    
   12597    (1,12597)             9.43618001E-02
   12598    (1,12598)             0.10577338    
   12599    (1,12599)             9.61095814E-02
   12600    (1,12600)             8.49719771E-02
   12601    (1,12601)             0.15593484    
   12602    (1,12602)             8.26355333E-02
   12603    (1,12603)             8.88526772E-02
   12604    (1,12604)             7.63228511E-02
   12605    (1,12605)             9.66493456E-02
   12606    (1,12606)             0.11658596    
   12607    (1,12607)             8.85001929E-02
   12608    (1,12608)             0.13502035    
   12609    (1,12609)             0.14049448    
   12610    (1,12610)             0.15676841    
   12611    (1,12611)             8.53130609E-02
   12612    (1,12612)             8.68477676E-02
   12613    (1,12613)             0.10478526    
   12614    (1,12614)             7.94802581E-02
   12615    (1,12615)             0.10936591    
   12616    (1,12616)             9.88227717E-02
   12617    (1,12617)             8.73313246E-02
   12618    (1,12618)             0.10396491    
   12619    (1,12619)             8.09139815E-02
   12620    (1,12620)             0.13049377    
   12621    (1,12621)             9.49617780E-02
   12622    (1,12622)             0.11826019    
   12623    (1,12623)             0.12662632    
   12624    (1,12624)             9.18757089E-02
   12625    (1,12625)             0.12573716    
   12626    (1,12626)             0.10767510    
   12627    (1,12627)             8.21630125E-02
   12628    (1,12628)             6.59396660E-02
   12629    (1,12629)             0.13268118    
   12630    (1,12630)             8.43775082E-02
   12631    (1,12631)             6.57334354E-02
   12632    (1,12632)             8.16708899E-02
   12633    (1,12633)             9.96288718E-02
   12634    (1,12634)             0.11727599    
   12635    (1,12635)             9.84812203E-02
   12636    (1,12636)             0.10302527    
   12637    (1,12637)             0.14585456    
   12638    (1,12638)             6.94209506E-02
   12639    (1,12639)             9.41190538E-02
   12640    (1,12640)             0.13039766    
   12641    (1,12641)             0.10948256    
   12642    (1,12642)             8.71290742E-02
   12643    (1,12643)             0.13257415    
   12644    (1,12644)             8.75083241E-02
   12645    (1,12645)             8.64949912E-02
   12646    (1,12646)             0.11631947    
   12647    (1,12647)             0.12209538    
   12648    (1,12648)             0.10258180    
   12649    (1,12649)             0.13112067    
   12650    (1,12650)             0.15273373    
   12651    (1,12651)             7.30905182E-02
   12652    (1,12652)             6.16304561E-02
   12653    (1,12653)             9.33900162E-02
   12654    (1,12654)             6.25439643E-02
   12655    (1,12655)             9.88393183E-02
   12656    (1,12656)             0.13369270    
   12657    (1,12657)             7.30442907E-02
   12658    (1,12658)             8.14835357E-02
   12659    (1,12659)             6.43786078E-02
   12660    (1,12660)             7.35473114E-02
   12661    (1,12661)             9.32299736E-02
   12662    (1,12662)             0.11615166    
   12663    (1,12663)             8.19826465E-02
   12664    (1,12664)             6.60499694E-02
   12665    (1,12665)             0.15140234    
   12666    (1,12666)             8.48706472E-02
   12667    (1,12667)             8.00514994E-02
   12668    (1,12668)             8.15338042E-02
   12669    (1,12669)             7.58847978E-02
   12670    (1,12670)             9.30627352E-02
   12671    (1,12671)             7.52316866E-02
   12672    (1,12672)             0.10648929    
   12673    (1,12673)             9.81369762E-02
   12674    (1,12674)             8.76482231E-02
   12675    (1,12675)             0.16312862    
   12676    (1,12676)             0.14551438    
   12677    (1,12677)             8.79106081E-02
   12678    (1,12678)             8.72776740E-02
   12679    (1,12679)             0.10460326    
   12680    (1,12680)             7.67725615E-02
   12681    (1,12681)             0.17323224    
   12682    (1,12682)             8.31373620E-02
   12683    (1,12683)             0.13846871    
   12684    (1,12684)             7.40283985E-02
   12685    (1,12685)             7.88330947E-02
   12686    (1,12686)             7.08722792E-02
   12687    (1,12687)             0.11617877    
   12688    (1,12688)             7.76484459E-02
   12689    (1,12689)             7.30812324E-02
   12690    (1,12690)             6.85343418E-02
   12691    (1,12691)             9.97360825E-02
   12692    (1,12692)             0.10621726    
   12693    (1,12693)             9.19783791E-02
   12694    (1,12694)             0.13377438    
   12695    (1,12695)             0.10749790    
   12696    (1,12696)             0.10830139    
   12697    (1,12697)             9.96323885E-02
   12698    (1,12698)             0.15516689    
   12699    (1,12699)             9.55218921E-02
   12700    (1,12700)             0.12861712    
   12701    (1,12701)             0.11477551    
   12702    (1,12702)             0.10058092    
   12703    (1,12703)             0.13803855    
   12704    (1,12704)             0.14600264    
   12705    (1,12705)             0.10357422    
   12706    (1,12706)             0.10285481    
   12707    (1,12707)             0.10888020    
   12708    (1,12708)             0.20233725    
   12709    (1,12709)             9.41804773E-02
   12710    (1,12710)             9.86068572E-02
   12711    (1,12711)             0.10659857    
   12712    (1,12712)             9.68269166E-02
   12713    (1,12713)             8.88998419E-02
   12714    (1,12714)             0.12208148    
   12715    (1,12715)             0.14564066    
   12716    (1,12716)             9.90679238E-02
   12717    (1,12717)             0.15235699    
   12718    (1,12718)             9.85395442E-02
   12719    (1,12719)             0.13663350    
   12720    (1,12720)             0.12099562    
   12721    (1,12721)             0.10689964    
   12722    (1,12722)             0.13768618    
   12723    (1,12723)             0.18449451    
   12724    (1,12724)             0.16700033    
   12725    (1,12725)             0.16526800    
   12726    (1,12726)             9.67784777E-02
   12727    (1,12727)             0.15607271    
   12728    (1,12728)             0.15487742    
   12729    (1,12729)             9.78668690E-02
   12730    (1,12730)             7.48907653E-02
   12731    (1,12731)             0.10221260    
   12732    (1,12732)             0.15375750    
   12733    (1,12733)             8.08143563E-02
   12734    (1,12734)             0.10319065    
   12735    (1,12735)             0.14003219    
   12736    (1,12736)             9.52237664E-02
   12737    (1,12737)             0.12890691    
   12738    (1,12738)             9.70693424E-02
   12739    (1,12739)             0.10250328    
   12740    (1,12740)             0.14231676    
   12741    (1,12741)             0.12767009    
   12742    (1,12742)             0.11470323    
   12743    (1,12743)             0.12136073    
   12744    (1,12744)             8.98940278E-02
   12745    (1,12745)             0.12811597    
   12746    (1,12746)             0.10395861    
   12747    (1,12747)             0.17413050    
   12748    (1,12748)             7.81979120E-02
   12749    (1,12749)             0.14515090    
   12750    (1,12750)             0.12793163    
   12751    (1,12751)             0.13333782    
   12752    (1,12752)             0.10072466    
   12753    (1,12753)             0.13812317    
   12754    (1,12754)             7.10749839E-02
   12755    (1,12755)             0.12104880    
   12756    (1,12756)             0.12046663    
   12757    (1,12757)             0.17083062    
   12758    (1,12758)             0.17305960    
   12759    (1,12759)             0.11761535    
   12760    (1,12760)             0.11835276    
   12761    (1,12761)             0.11998036    
   12762    (1,12762)             0.11042773    
   12763    (1,12763)             8.13416871E-02
   12764    (1,12764)             9.08956894E-02
   12765    (1,12765)             0.16385835    
   12766    (1,12766)             0.12864794    
   12767    (1,12767)             0.12029732    
   12768    (1,12768)             9.18539769E-02
   12769    (1,12769)             6.62761685E-02
   12770    (1,12770)             9.01755594E-02
   12771    (1,12771)             0.10296095    
   12772    (1,12772)             8.03698424E-02
   12773    (1,12773)             8.65107331E-02
   12774    (1,12774)             6.78827423E-02
   12775    (1,12775)             7.59133342E-02
   12776    (1,12776)             7.96033635E-02
   12777    (1,12777)             7.37923265E-02
   12778    (1,12778)             7.67294525E-02
   12779    (1,12779)             8.55463681E-02
   12780    (1,12780)             8.68696004E-02
   12781    (1,12781)             9.16670455E-02
   12782    (1,12782)             8.68103346E-02
   12783    (1,12783)             0.14027625    
   12784    (1,12784)             0.17728121    
   12785    (1,12785)             0.13094797    
   12786    (1,12786)             0.13271557    
   12787    (1,12787)             6.98711314E-02
   12788    (1,12788)             8.21262177E-02
   12789    (1,12789)             7.46948479E-02
   12790    (1,12790)             0.11068714    
   12791    (1,12791)             0.11136950    
   12792    (1,12792)             9.79591519E-02
   12793    (1,12793)             0.14010883    
   12794    (1,12794)             0.16517936    
   12795    (1,12795)             0.10810796    
   12796    (1,12796)             0.16967903    
   12797    (1,12797)             7.28322553E-02
   12798    (1,12798)             0.12039962    
   12799    (1,12799)             8.65232432E-02
   12800    (1,12800)             0.10365591    
   12801    (1,12801)             8.26846813E-02
   12802    (1,12802)             8.37549845E-02
   12803    (1,12803)             0.10885302    
   12804    (1,12804)             0.11211348    
   12805    (1,12805)             0.13107413    
   12806    (1,12806)             0.15787749    
   12807    (1,12807)             0.10062900    
   12808    (1,12808)             6.26230388E-02
   12809    (1,12809)             6.60203061E-02
   12810    (1,12810)             0.10215260    
   12811    (1,12811)             9.38475135E-02
   12812    (1,12812)             7.34980122E-02
   12813    (1,12813)             8.59549694E-02
   12814    (1,12814)             0.10340610    
   12815    (1,12815)             9.10698622E-02
   12816    (1,12816)             0.14979762    
   12817    (1,12817)             0.14793429    
   12818    (1,12818)             0.11966094    
 -----------------------------------------------




 HEAD WILL BE SAVED ON UNIT 1018 AT END OF TIME STEP    1, STRESS PERIOD    1


  VOLUME BUDGET FOR ENTIRE MODEL AT END OF TIME STEP    1, STRESS PERIOD   1
  ---------------------------------------------------------------------------------------------------

     CUMULATIVE VOLUME      L**3       RATES FOR THIS TIME STEP      L**3/T          PACKAGE NAME    
     ------------------                 ------------------------                     ----------------

           IN:                                      IN:
           ---                                      ---
                 WEL =           0.0000                   WEL =           0.0000     WELL_CASEC                       
                 RCH =         345.0950                   RCH =         345.0950     RCH                              
                 EVT =           0.0000                   EVT =           0.0000     EVT                              
                 CHD =          11.0834                   CHD =          11.0834     CHD                              

            TOTAL IN =         356.1784              TOTAL IN =         356.1784

          OUT:                                     OUT:
          ----                                     ----
                 WEL =          74.1339                   WEL =          74.1339     WELL_CASEC                       
                 RCH =           0.0000                   RCH =           0.0000     RCH                              
                 EVT =           5.2624                   EVT =           5.2624     EVT                              
                 CHD =         276.7820                   CHD =         276.7820     CHD                              

           TOTAL OUT =         356.1782             TOTAL OUT =         356.1782

            IN - OUT =       1.8978E-04              IN - OUT =       1.8978E-04

 PERCENT DISCREPANCY =           0.00     PERCENT DISCREPANCY =           0.00




         TIME SUMMARY AT END OF TIME STEP    1 IN STRESS PERIOD    1
                    SECONDS     MINUTES      HOURS       DAYS        YEARS
                    -----------------------------------------------------------
   TIME STEP LENGTH  1.0000     1.66667E-02 2.77778E-04 1.15741E-05 3.16881E-08
 STRESS PERIOD TIME  1.0000     1.66667E-02 2.77778E-04 1.15741E-05 3.16881E-08
         TOTAL TIME  1.0000     1.66667E-02 2.77778E-04 1.15741E-05 3.16881E-08


end timestep

